version 3
run General-0-20220601-14:36:23-12386
attr configname General
attr datetime 20220601-14:36:23
attr datetimef 20220601-143623
attr experiment General
attr inifile omnetpp.ini
attr iterationvars ""
attr iterationvarsd ""
attr iterationvarsf ""
attr measurement ""
attr network Red
attr processid 12386
attr repetition 0
attr replication #0
attr resultdir results
attr runnumber 0
attr seedset 0
config image-path ../../inet/images
config network Red
config sim-time-limit 34s
config **.H*.app[0].startTime 32s
config **.H*.ipv4.isRdma true
config **.H*.eth[*].encap.isRdma true
config **.length 5m
config **.visualize true
config **.SW_*.hasStp true
config **.spanningTreeProtocol "\"Stp\""
config **.H*.numApps 1
config **.H*.app[0].typename RdmaBasicApp
config **.H*.app[0].localPort 1000
config **.H*.app[0].destPort 1000
config **.H_1.app[0].destAddresses "\"\""
config **.H*.app[0].destAddresses "\"H_1\""
config **.H*.app[*].sendInterval 0.01s
config **.H*.app[*].messageLength 65536B

par Red.H_0.ethg$o[0].channel typename "\"inet.node.ethernet.Eth40G\""
par Red.H_0.ethg$o[0].channel disabled false
par Red.H_0.ethg$o[0].channel delay 2.5e-08s
attr unit s
par Red.H_0.ethg$o[0].channel datarate 4e+10bps
attr unit bps
par Red.H_0.ethg$o[0].channel ber 0
par Red.H_0.ethg$o[0].channel per 0
par Red.H_0.ethg$o[0].channel length 5m
attr unit m
par Red.SW_1_1.ethg$o[0].channel typename "\"inet.node.ethernet.Eth40G\""
par Red.SW_1_1.ethg$o[0].channel disabled false
par Red.SW_1_1.ethg$o[0].channel delay 2.5e-08s
attr unit s
par Red.SW_1_1.ethg$o[0].channel datarate 4e+10bps
attr unit bps
par Red.SW_1_1.ethg$o[0].channel ber 0
par Red.SW_1_1.ethg$o[0].channel per 0
par Red.SW_1_1.ethg$o[0].channel length 5m
attr unit m
par Red.H_1.ethg$o[0].channel typename "\"inet.node.ethernet.Eth40G\""
par Red.H_1.ethg$o[0].channel disabled false
par Red.H_1.ethg$o[0].channel delay 2.5e-08s
attr unit s
par Red.H_1.ethg$o[0].channel datarate 4e+10bps
attr unit bps
par Red.H_1.ethg$o[0].channel ber 0
par Red.H_1.ethg$o[0].channel per 0
par Red.H_1.ethg$o[0].channel length 5m
attr unit m
par Red.SW_1_1.ethg$o[1].channel typename "\"inet.node.ethernet.Eth40G\""
par Red.SW_1_1.ethg$o[1].channel disabled false
par Red.SW_1_1.ethg$o[1].channel delay 2.5e-08s
attr unit s
par Red.SW_1_1.ethg$o[1].channel datarate 4e+10bps
attr unit bps
par Red.SW_1_1.ethg$o[1].channel ber 0
par Red.SW_1_1.ethg$o[1].channel per 0
par Red.SW_1_1.ethg$o[1].channel length 5m
attr unit m
par Red.H_2.ethg$o[0].channel typename "\"inet.node.ethernet.Eth40G\""
par Red.H_2.ethg$o[0].channel disabled false
par Red.H_2.ethg$o[0].channel delay 2.5e-08s
attr unit s
par Red.H_2.ethg$o[0].channel datarate 4e+10bps
attr unit bps
par Red.H_2.ethg$o[0].channel ber 0
par Red.H_2.ethg$o[0].channel per 0
par Red.H_2.ethg$o[0].channel length 5m
attr unit m
par Red.SW_2_1.ethg$o[0].channel typename "\"inet.node.ethernet.Eth40G\""
par Red.SW_2_1.ethg$o[0].channel disabled false
par Red.SW_2_1.ethg$o[0].channel delay 2.5e-08s
attr unit s
par Red.SW_2_1.ethg$o[0].channel datarate 4e+10bps
attr unit bps
par Red.SW_2_1.ethg$o[0].channel ber 0
par Red.SW_2_1.ethg$o[0].channel per 0
par Red.SW_2_1.ethg$o[0].channel length 5m
attr unit m
par Red.H_3.ethg$o[0].channel typename "\"inet.node.ethernet.Eth40G\""
par Red.H_3.ethg$o[0].channel disabled false
par Red.H_3.ethg$o[0].channel delay 2.5e-08s
attr unit s
par Red.H_3.ethg$o[0].channel datarate 4e+10bps
attr unit bps
par Red.H_3.ethg$o[0].channel ber 0
par Red.H_3.ethg$o[0].channel per 0
par Red.H_3.ethg$o[0].channel length 5m
attr unit m
par Red.SW_2_1.ethg$o[1].channel typename "\"inet.node.ethernet.Eth40G\""
par Red.SW_2_1.ethg$o[1].channel disabled false
par Red.SW_2_1.ethg$o[1].channel delay 2.5e-08s
attr unit s
par Red.SW_2_1.ethg$o[1].channel datarate 4e+10bps
attr unit bps
par Red.SW_2_1.ethg$o[1].channel ber 0
par Red.SW_2_1.ethg$o[1].channel per 0
par Red.SW_2_1.ethg$o[1].channel length 5m
attr unit m
par Red.SW_1_1.ethg$o[2].channel typename "\"inet.node.ethernet.Eth40G\""
par Red.SW_1_1.ethg$o[2].channel disabled false
par Red.SW_1_1.ethg$o[2].channel delay 2.5e-08s
attr unit s
par Red.SW_1_1.ethg$o[2].channel datarate 4e+10bps
attr unit bps
par Red.SW_1_1.ethg$o[2].channel ber 0
par Red.SW_1_1.ethg$o[2].channel per 0
par Red.SW_1_1.ethg$o[2].channel length 5m
attr unit m
par Red.SW_2_1.ethg$o[2].channel typename "\"inet.node.ethernet.Eth40G\""
par Red.SW_2_1.ethg$o[2].channel disabled false
par Red.SW_2_1.ethg$o[2].channel delay 2.5e-08s
attr unit s
par Red.SW_2_1.ethg$o[2].channel datarate 4e+10bps
attr unit bps
par Red.SW_2_1.ethg$o[2].channel ber 0
par Red.SW_2_1.ethg$o[2].channel per 0
par Red.SW_2_1.ethg$o[2].channel length 5m
attr unit m
par Red.H_0.ethg$i[0].channel typename "\"ned.IdealChannel\""
par Red.H_0.eth[0].phys$o.channel typename "\"ned.IdealChannel\""
par Red.H_0.interfaceTable typename "\"inet.networklayer.common.InterfaceTable\""
par Red.H_0.interfaceTable displayAddresses false
par Red.H_0.li typename "\"inet.common.MessageDispatcher\""
par Red.H_0.li displayStringTextFormat "\"processed %p pk (%l)\""
par Red.H_0.lo[0].upperLayerIn.channel typename "\"ned.IdealChannel\""
par Red.H_0.lo[0].lo.upperLayerOut.channel typename "\"ned.IdealChannel\""
par Red.H_0.lo[0].lo.appLayerOut.channel typename "\"ned.IdealChannel\""
par Red.H_0.lo[0].lo typename "\"inet.linklayer.contract.rdma.Loopback\""
par Red.H_0.lo[0].lo interfaceTableModule "\"Red.H_0.interfaceTable\""
par Red.H_0.lo[0].lo mtu 4470B
attr unit B
scalar Red.H_0.lo[0].lo rcvdPkFromHl:count 0
attr interpolationmode none
attr source packetReceivedFromUpper
attr title "packets received from higher layer, count"
scalar Red.H_0.lo[0].lo rcvdPkFromHl:sum(packetBytes) 0
attr interpolationmode none
attr source packetReceivedFromUpper
attr title "packets received from higher layer, sum(packetBytes)"
scalar Red.H_0.lo[0].lo passedUpPk:count 0
attr interpolationmode none
attr source packetSentToUpper
attr title "packets passed to higher layer, count"
scalar Red.H_0.lo[0].lo passedUpPk:sum(packetBytes) 0
attr interpolationmode none
attr source packetSentToUpper
attr title "packets passed to higher layer, sum(packetBytes)"
par Red.H_0.lo[0] typename "\"inet.linklayer.contract.rdma.LoopbackInterface\""
par Red.H_0.lo[0] displayStringTextFormat "\"%a (%i)\\n%m\""
par Red.H_0.lo[0] recordPcap false
par Red.H_0.lo[0] numPcapRecorders 0
par Red.H_0.lo[0] interfaceTableModule "\"Red.H_0.interfaceTable\""
par Red.H_0.eth[0].mac.phys$o.channel typename "\"ned.IdealChannel\""
par Red.H_0.eth[0].phys$i.channel typename "\"ned.IdealChannel\""
par Red.H_0.eth[0].encap.appLayerOut.channel typename "\"ned.IdealChannel\""
par Red.H_0.eth[0].encap.upperLayerOut.channel typename "\"ned.IdealChannel\""
par Red.H_0.eth[0].upperLayerIn.channel typename "\"ned.IdealChannel\""
par Red.H_0.eth[0].encap typename "\"inet.linklayer.contract.rdma.EthernetEncapsulation\""
par Red.H_0.eth[0].encap interfaceTableModule "\"Red.H_0.interfaceTable\""
par Red.H_0.eth[0].encap useSNAP false
par Red.H_0.eth[0].encap fcsMode "\"declared\""
attr enum declared,computed
par Red.H_0.eth[0].encap registerProtocol false
par Red.H_0.eth[0].encap stopOperationExtraTime -1s
attr unit s
par Red.H_0.eth[0].encap stopOperationTimeout 2s
attr unit s
par Red.H_0.eth[0].encap isRdma true
scalar Red.H_0.eth[0].encap pauseSent:count 0
attr title "pause sent, count"
scalar Red.H_0.eth[0].encap pauseSent:sum 0
attr title "pause sent, sum"
scalar Red.H_0.eth[0].encap decapPk:count 3
attr interpolationmode none
attr source decapPk
attr title "packets decapsulated, count"
scalar Red.H_0.eth[0].encap decapPk:sum(packetBytes) 138
attr interpolationmode none
attr source decapPk
attr title "packets decapsulated, sum(packetBytes)"
scalar Red.H_0.eth[0].encap encapPk:count 9850
attr interpolationmode none
attr source encapPk
attr title "packets encapsulated, count"
scalar Red.H_0.eth[0].encap encapPk:sum(packetBytes) 13422808
attr interpolationmode none
attr source encapPk
attr title "packets encapsulated, sum(packetBytes)"
par Red.H_0.eth[0].mac.queue typename "\"inet.linklayer.ethernet.common.EthernetQueue\""
par Red.H_0.eth[0].mac.queue displayStringTextFormat "\"contains %p pk (%l) pushed %u\\npulled %o removed %r dropped %d\""
par Red.H_0.eth[0].mac.queue packetCapacity 10000
par Red.H_0.eth[0].mac.queue dataCapacity -1b
attr unit b
par Red.H_0.eth[0].mac.queue dropperClass "\"inet::queueing::PacketAtCollectionEndDropper\""
par Red.H_0.eth[0].mac.queue comparatorClass "\"inet::EthernetFrameTypeComparator\""
par Red.H_0.eth[0].mac.queue bufferModule "\"\""
scalar Red.H_0.eth[0].mac.queue packetPulled:count 9802
attr interpolationmode none
attr title "packet pulled, count"
scalar Red.H_0.eth[0].mac.queue packetPulled:sum(packetBytes) 13533964
attr interpolationmode none
attr title "packet pulled, sum(packetBytes)"
statistic Red.H_0.eth[0].mac.queue queueingTime:histogram
field count 9802
field mean 6.8653417669864e-06
field stddev 4.0346241003553e-06
field min 0
field max 1.36896e-05
field sum 0.067294080000001
field sqrsum 6.21539414272e-07
attr interpolationmode none
attr source queueingTime(packetPulled)
attr title "queueing times, histogram"
attr unit s
bin	-inf	0
bin	0	202
bin	2e-07	200
bin	4e-07	0
bin	6e-07	200
bin	8e-07	200
bin	1e-06	200
bin	1.2e-06	0
bin	1.4e-06	200
bin	1.6e-06	200
bin	1.8e-06	0
bin	2e-06	200
bin	2.2e-06	200
bin	2.4e-06	200
bin	2.6e-06	0
bin	2.8e-06	200
bin	3e-06	200
bin	3.2e-06	0
bin	3.4e-06	200
bin	3.6e-06	200
bin	3.8e-06	0
bin	4e-06	200
bin	4.2e-06	200
bin	4.4e-06	200
bin	4.6e-06	0
bin	4.8e-06	200
bin	5e-06	200
bin	5.2e-06	0
bin	5.4e-06	200
bin	5.6e-06	200
bin	5.8e-06	200
bin	6e-06	0
bin	6.2e-06	200
bin	6.4e-06	0
bin	6.6e-06	200
bin	6.8e-06	200
bin	7e-06	200
bin	7.2e-06	0
bin	7.4e-06	200
bin	7.6e-06	200
bin	7.8e-06	0
bin	8e-06	200
bin	8.2e-06	200
bin	8.4e-06	200
bin	8.6e-06	0
bin	8.8e-06	200
bin	9e-06	200
bin	9.2e-06	0
bin	9.4e-06	200
bin	9.6e-06	200
bin	9.8e-06	0
bin	1e-05	200
bin	1.02e-05	200
bin	1.04e-05	200
bin	1.06e-05	0
bin	1.08e-05	200
bin	1.1e-05	200
bin	1.12e-05	0
bin	1.14e-05	200
bin	1.16e-05	200
bin	1.18e-05	200
bin	1.2e-05	0
bin	1.22e-05	200
bin	1.24e-05	200
bin	1.26e-05	0
bin	1.28e-05	200
bin	1.3e-05	200
bin	1.32e-05	0
bin	1.34e-05	200
bin	1.36e-05	200
bin	1.38e-05	0
bin	1.4e-05	0
bin	1.42e-05	0
bin	1.44e-05	0
bin	1.46e-05	0
bin	1.48e-05	0
bin	1.5e-05	0
bin	1.52e-05	0
bin	1.54e-05	0
bin	1.56e-05	0
bin	1.58e-05	0
bin	1.6e-05	0
bin	1.62e-05	0
bin	1.64e-05	0
bin	1.66e-05	0
bin	1.68e-05	0
bin	1.7e-05	0
bin	1.72e-05	0
scalar Red.H_0.eth[0].mac.queue queueLength:max 48
attr autoWarmupFilter false
attr interpolationmode sample-hold
attr source "warmup(count(packetPushed) - count(packetPulled) - count(packetRemoved) - count(packetDropped))"
attr title "queue length, max"
attr type int
scalar Red.H_0.eth[0].mac.queue queueLength:timeavg 0.03364704
attr autoWarmupFilter false
attr interpolationmode sample-hold
attr source "warmup(count(packetPushed) - count(packetPulled) - count(packetRemoved) - count(packetDropped))"
attr title "queue length, timeavg"
attr type int
scalar Red.H_0.eth[0].mac.queue packetPushed:count 9850
attr interpolationmode none
attr title "packet pushed, count"
scalar Red.H_0.eth[0].mac.queue packetPushed:sum(packetBytes) 13600108
attr interpolationmode none
attr title "packet pushed, sum(packetBytes)"
scalar Red.H_0.eth[0].mac.queue packetDropQueueOverflow:count 0
attr interpolationmode none
attr source packetDropReasonIsQueueOverflow(packetDropped)
attr title "packet drops: queue overflow, count"
scalar Red.H_0.eth[0].mac.queue packetDropQueueOverflow:sum(packetBytes) 0
attr interpolationmode none
attr source packetDropReasonIsQueueOverflow(packetDropped)
attr title "packet drops: queue overflow, sum(packetBytes)"
scalar Red.H_0.eth[0].mac.queue packetRemoved:count 0
attr interpolationmode none
attr title "packets removed, count"
scalar Red.H_0.eth[0].mac.queue packetRemoved:sum(packetBytes) 0
attr interpolationmode none
attr title "packets removed, sum(packetBytes)"
par Red.H_0.eth[0].mac typename "\"inet.linklayer.ethernet.basic.EthernetMac\""
par Red.H_0.eth[0].mac interfaceTableModule "\"Red.H_0.interfaceTable\""
par Red.H_0.eth[0].mac displayStringTextFormat "\"rate: %b\\nsent: %s, rcvd: %r\\nqueue: %q, drop: %d\""
par Red.H_0.eth[0].mac sendRawBytes false
par Red.H_0.eth[0].mac promiscuous false
par Red.H_0.eth[0].mac duplexMode true
par Red.H_0.eth[0].mac mtu 1500B
attr unit B
par Red.H_0.eth[0].mac stopOperationExtraTime -1s
attr unit s
par Red.H_0.eth[0].mac stopOperationTimeout 2s
attr unit s
scalar Red.H_0.eth[0].mac "simulated time" 34
scalar Red.H_0.eth[0].mac full-duplex 1
scalar Red.H_0.eth[0].mac "frames/sec sent" 288.26470588235
scalar Red.H_0.eth[0].mac "frames/sec rcvd" 1.0588235294118
scalar Red.H_0.eth[0].mac "bits/sec sent" 3184109.1764706
scalar Red.H_0.eth[0].mac "bits/sec rcvd" 542.11764705882
scalar Red.H_0.eth[0].mac "rx channel idle (%)" 99.999998475294
scalar Red.H_0.eth[0].mac "rx channel utilization (%)" 1.5247058823529e-06
scalar Red.H_0.eth[0].mac rxPausePkUnits:count 0
attr interpolationmode none
attr title "pause units received, count"
scalar Red.H_0.eth[0].mac rxPausePkUnits:sum 0
attr interpolationmode none
attr title "pause units received, sum"
scalar Red.H_0.eth[0].mac txPausePkUnits:count 0
attr interpolationmode none
attr title "pause units sent, count"
scalar Red.H_0.eth[0].mac txPausePkUnits:sum 0
attr interpolationmode none
attr title "pause units sent, sum"
scalar Red.H_0.eth[0].mac rxPkOk:count 36
attr interpolationmode none
attr source rxPkOk
attr title "packets received OK, count"
scalar Red.H_0.eth[0].mac rxPkOk:sum(packetBytes) 2304
attr interpolationmode none
attr source rxPkOk
attr title "packets received OK, sum(packetBytes)"
scalar Red.H_0.eth[0].mac txPk:count 9801
attr interpolationmode none
attr source packetSentToLower
attr title "packets transmitted, count"
scalar Red.H_0.eth[0].mac txPk:sum(packetBytes) 13532464
attr interpolationmode none
attr source packetSentToLower
attr title "packets transmitted, sum(packetBytes)"
scalar Red.H_0.eth[0].mac packetReceivedFromUpper:count 9850
attr interpolationmode none
attr source packetReceivedFromUpper
attr title "packet bytes from higher layer, count"
scalar Red.H_0.eth[0].mac packetReceivedFromUpper:sum(packetBytes) 13600108
attr interpolationmode none
attr source packetReceivedFromUpper
attr title "packet bytes from higher layer, sum(packetBytes)"
scalar Red.H_0.eth[0].mac passedUpPk:count 36
attr interpolationmode none
attr source packetSentToUpper
attr title "packets passed to higher layer, count"
scalar Red.H_0.eth[0].mac passedUpPk:sum(packetBytes) 2304
attr interpolationmode none
attr source packetSentToUpper
attr title "packets passed to higher layer, sum(packetBytes)"
scalar Red.H_0.eth[0].mac packetDropIncorrectlyReceived:count 0
attr interpolationmode none
attr source packetDropReasonIsIncorrectlyReceived(packetDropped)
attr title "packet drop: incorrectly received, count"
scalar Red.H_0.eth[0].mac packetDropIncorrectlyReceived:sum(packetBytes) 0
attr interpolationmode none
attr source packetDropReasonIsIncorrectlyReceived(packetDropped)
attr title "packet drop: incorrectly received, sum(packetBytes)"
scalar Red.H_0.eth[0].mac packetDropInterfaceDown:count 0
attr interpolationmode none
attr source packetDropReasonIsInterfaceDown(packetDropped)
attr title "packet drop: interface down, count"
scalar Red.H_0.eth[0].mac packetDropInterfaceDown:sum(packetBytes) 0
attr interpolationmode none
attr source packetDropReasonIsInterfaceDown(packetDropped)
attr title "packet drop: interface down, sum(packetBytes)"
scalar Red.H_0.eth[0].mac packetDropNotAddressedToUs:count 0
attr interpolationmode none
attr source packetDropReasonIsNotAddressedToUs(packetDropped)
attr title "packet drop: not addressed to us, count"
scalar Red.H_0.eth[0].mac packetDropNotAddressedToUs:sum(packetBytes) 0
attr interpolationmode none
attr source packetDropReasonIsNotAddressedToUs(packetDropped)
attr title "packet drop: not addressed to us, sum(packetBytes)"
par Red.H_0.eth[0] typename "\"inet.linklayer.contract.rdma.EthernetInterface\""
par Red.H_0.eth[0] displayStringTextFormat "\"%a (%i)\\n%m\""
par Red.H_0.eth[0] recordPcap false
par Red.H_0.eth[0] numPcapRecorders 0
par Red.H_0.eth[0] interfaceTableModule "\"Red.H_0.interfaceTable\""
par Red.H_0.eth[0] address "\"0A-AA-00-00-00-01\""
par Red.H_0.eth[0] duplexMode true
par Red.H_0.eth[0] csmacdSupport false
par Red.H_0.eth[0] bitrate 0bps
attr unit bps
par Red.H_0.eth[0] fcsMode "\"declared\""
attr enum declared,computed
par Red.H_0.ipv4.transportIn.channel typename "\"ned.IdealChannel\""
par Red.H_0.ipv4.up.out[0].channel typename "\"ned.IdealChannel\""
par Red.H_0.ipv4.lp.out[2].channel typename "\"ned.IdealChannel\""
par Red.H_0.ipv4.ifIn.channel typename "\"ned.IdealChannel\""
par Red.H_0.ipv4.configurator typename "\"inet.networklayer.configurator.ipv4.Ipv4NodeConfigurator\""
par Red.H_0.ipv4.configurator interfaceTableModule "\"Red.H_0.interfaceTable\""
par Red.H_0.ipv4.configurator routingTableModule "\"Red.H_0.ipv4.routingTable\""
par Red.H_0.ipv4.configurator networkConfiguratorModule "\"configurator\""
par Red.H_0.ipv4.configurator configureRoutingTable true
par Red.H_0.ipv4.routingTable typename "\"inet.networklayer.ipv4.Ipv4RoutingTable\""
par Red.H_0.ipv4.routingTable interfaceTableModule "\"Red.H_0.interfaceTable\""
par Red.H_0.ipv4.routingTable routerId "\"auto\""
par Red.H_0.ipv4.routingTable netmaskRoutes "\"*\""
par Red.H_0.ipv4.routingTable forwarding false
par Red.H_0.ipv4.routingTable multicastForwarding false
par Red.H_0.ipv4.routingTable useAdminDist false
par Red.H_0.ipv4.routingTable routingFile "\"\""
par Red.H_0.ipv4.natTable typename "\"inet.networklayer.ipv4.Ipv4NatTable\""
par Red.H_0.ipv4.natTable networkProtocolModule "\"^.ip\""
par Red.H_0.ipv4.natTable config "<config/> at content:1"
par Red.H_0.ipv4.up typename "\"inet.common.MessageDispatcher\""
par Red.H_0.ipv4.up displayStringTextFormat "\"processed %p pk (%l)\""
par Red.H_0.ipv4.igmp typename "\"inet.networklayer.ipv4.Igmpv2\""
par Red.H_0.ipv4.igmp interfaceTableModule "\"Red.H_0.interfaceTable\""
par Red.H_0.ipv4.igmp routingTableModule "\"Red.H_0.ipv4.routingTable\""
par Red.H_0.ipv4.igmp crcMode "\"declared\""
attr enum declared,computed
par Red.H_0.ipv4.igmp enabled true
par Red.H_0.ipv4.igmp robustnessVariable 2
par Red.H_0.ipv4.igmp queryInterval 125s
attr unit s
par Red.H_0.ipv4.igmp queryResponseInterval 10s
attr unit s
par Red.H_0.ipv4.igmp groupMembershipInterval 260s
attr unit s
par Red.H_0.ipv4.igmp otherQuerierPresentInterval 255s
attr unit s
par Red.H_0.ipv4.igmp startupQueryInterval 31.25s
attr unit s
par Red.H_0.ipv4.igmp startupQueryCount 2
par Red.H_0.ipv4.igmp lastMemberQueryInterval 1s
attr unit s
par Red.H_0.ipv4.igmp lastMemberQueryCount 2
par Red.H_0.ipv4.igmp unsolicitedReportInterval 10s
attr unit s
par Red.H_0.ipv4.icmp typename "\"inet.networklayer.ipv4.Icmp\""
par Red.H_0.ipv4.icmp interfaceTableModule "\"Red.H_0.interfaceTable\""
par Red.H_0.ipv4.icmp routingTableModule "\"Red.H_0.ipv4.routingTable\""
par Red.H_0.ipv4.icmp crcMode "\"declared\""
attr enum declared,computed
par Red.H_0.ipv4.icmp quoteLength 8B
attr unit B
par Red.H_0.ipv4.mp typename "\"inet.common.MessageDispatcher\""
par Red.H_0.ipv4.mp displayStringTextFormat "\"processed %p pk (%l)\""
par Red.H_0.ipv4.ip typename "\"inet.networklayer.ipv4.Ipv4\""
par Red.H_0.ipv4.ip interfaceTableModule "\"Red.H_0.interfaceTable\""
par Red.H_0.ipv4.ip routingTableModule "\"Red.H_0.ipv4.routingTable\""
par Red.H_0.ipv4.ip arpModule "\"Red.H_0.ipv4.arp\""
par Red.H_0.ipv4.ip icmpModule "\"Red.H_0.ipv4.icmp\""
par Red.H_0.ipv4.ip crcMode "\"declared\""
attr enum declared,computed
par Red.H_0.ipv4.ip timeToLive 32
par Red.H_0.ipv4.ip multicastTimeToLive 32
par Red.H_0.ipv4.ip fragmentTimeout 60s
attr unit s
par Red.H_0.ipv4.ip limitedBroadcast false
par Red.H_0.ipv4.ip directBroadcastInterfaces "\"\""
scalar Red.H_0.ipv4.ip packetDropAddressResolutionFailed:count 0
attr interpolationmode none
attr source packetDropReasonIsAddressResolutionFailed(packetDropped)
attr title "packet drop: address resolution failed, count"
scalar Red.H_0.ipv4.ip packetDropAddressResolutionFailed:sum(packetBytes) 0
attr interpolationmode none
attr source packetDropReasonIsAddressResolutionFailed(packetDropped)
attr title "packet drop: address resolution failed, sum(packetBytes)"
scalar Red.H_0.ipv4.ip packetDropHopLimitReached:count 0
attr interpolationmode none
attr source packetDropReasonIsHopLimitReached(packetDropped)
attr title "packet drop: hop limit reached, count"
scalar Red.H_0.ipv4.ip packetDropHopLimitReached:sum(packetBytes) 0
attr interpolationmode none
attr source packetDropReasonIsHopLimitReached(packetDropped)
attr title "packet drop: hop limit reached, sum(packetBytes)"
scalar Red.H_0.ipv4.ip packetDropForwardingDisabled:count 0
attr interpolationmode none
attr source packetDropReasonIsForwardingDisabled(packetDropped)
attr title "packet drop: forwarding disabled, count"
scalar Red.H_0.ipv4.ip packetDropForwardingDisabled:sum(packetBytes) 0
attr interpolationmode none
attr source packetDropReasonIsForwardingDisabled(packetDropped)
attr title "packet drop: forwarding disabled, sum(packetBytes)"
scalar Red.H_0.ipv4.ip packetDropNoInterfaceFound:count 0
attr interpolationmode none
attr source packetDropReasonIsNoInterfaceFound(packetDropped)
attr title "packet drop: no interface found, count"
scalar Red.H_0.ipv4.ip packetDropNoInterfaceFound:sum(packetBytes) 0
attr interpolationmode none
attr source packetDropReasonIsNoInterfaceFound(packetDropped)
attr title "packet drop: no interface found, sum(packetBytes)"
scalar Red.H_0.ipv4.ip packetDropNoRouteFound:count 0
attr interpolationmode none
attr source packetDropReasonIsNoRouteFound(packetDropped)
attr title "packet drop: no route found, count"
scalar Red.H_0.ipv4.ip packetDropNoRouteFound:sum(packetBytes) 0
attr interpolationmode none
attr source packetDropReasonIsNoRouteFound(packetDropped)
attr title "packet drop: no route found, sum(packetBytes)"
scalar Red.H_0.ipv4.ip packetDropUndefined:count 0
attr interpolationmode none
attr source packetDropReasonIsUndefined(packetDropped)
attr title "packet drop: undefined, count"
scalar Red.H_0.ipv4.ip packetDropUndefined:sum(packetBytes) 0
attr interpolationmode none
attr source packetDropReasonIsUndefined(packetDropped)
attr title "packet drop: undefined, sum(packetBytes)"
par Red.H_0.ipv4.arp typename "\"inet.networklayer.arp.ipv4.Arp\""
par Red.H_0.ipv4.arp interfaceTableModule "\"Red.H_0.interfaceTable\""
par Red.H_0.ipv4.arp routingTableModule "\"Red.H_0.ipv4.routingTable\""
par Red.H_0.ipv4.arp retryTimeout 1s
attr unit s
par Red.H_0.ipv4.arp retryCount 3
par Red.H_0.ipv4.arp cacheTimeout 120s
attr unit s
par Red.H_0.ipv4.arp proxyArpInterfaces "\"*\""
scalar Red.H_0.ipv4.arp arpResolutionFailed:count 0
attr title "ARP failed resolutions, count"
scalar Red.H_0.ipv4.arp arpResolutionCompleted:count 1
attr title "ARP completed resolutions, count"
scalar Red.H_0.ipv4.arp arpResolutionInitiated:count 1
attr title "ARP initiated resolutions, count"
scalar Red.H_0.ipv4.arp arpReplySent:count 0
attr source arpReplySent
attr title "ARP replies sent, count"
scalar Red.H_0.ipv4.arp arpReplySent:sum(packetBytes) 0
attr source arpReplySent
attr title "ARP replies sent, sum(packetBytes)"
scalar Red.H_0.ipv4.arp arpRequestSent:count 1
attr source arpRequestSent
attr title "ARP request sent, count"
scalar Red.H_0.ipv4.arp arpRequestSent:sum(packetBytes) 28
attr source arpRequestSent
attr title "ARP request sent, sum(packetBytes)"
par Red.H_0.ipv4.lp typename "\"inet.common.MessageDispatcher\""
par Red.H_0.ipv4.lp displayStringTextFormat "\"processed %p pk (%l)\""
par Red.H_0.ipv4 typename "\"inet.networklayer.ipv4.Ipv4NetworkLayer\""
par Red.H_0.ipv4 isRdma true
par Red.H_0.ipv4 forwarding false
par Red.H_0.ipv4 multicastForwarding false
par Red.H_0.ipv4 interfaceTableModule "\"Red.H_0.interfaceTable\""
par Red.H_0.ipv4 displayStringTextFormat "\"%i\""
par Red.H_0.nl typename "\"inet.common.MessageDispatcher\""
par Red.H_0.nl displayStringTextFormat "\"processed %p pk (%l)\""
par Red.H_0.rdma typename "\"inet.transportlayer.rdma.Rdma\""
par Red.H_0.rdma interfaceTableModule "\"Red.H_0.interfaceTable\""
par Red.H_0.rdma crcMode "\"declared\""
attr enum disabled,declared,computed
scalar Red.H_0.rdma packetReceived:count 0
attr interpolationmode none
attr source packetReceived
attr title "packets received, count"
scalar Red.H_0.rdma packetReceived:sum(packetBytes) 0
attr interpolationmode none
attr source packetReceived
attr title "packets received, sum(packetBytes)"
scalar Red.H_0.rdma packetSent:count 0
attr interpolationmode none
attr source packetSent
attr title "packets sent, count"
scalar Red.H_0.rdma packetSent:sum(packetBytes) 0
attr interpolationmode none
attr source packetSent
attr title "packets sent, sum(packetBytes)"
scalar Red.H_0.rdma passedUpPk:count 0
attr interpolationmode none
attr source packetSentToUpper
attr title "packets passed up, count"
scalar Red.H_0.rdma droppedPkWrongPort:count 0
attr interpolationmode none
attr source packetDropReasonIsNoPortFound(packetDropped)
attr title "packets dropped (wrong port), count"
scalar Red.H_0.rdma droppedPkBadChecksum:count 0
attr interpolationmode none
attr source packetDropReasonIsIncorrectlyReceived(packetDropped)
attr title "packets dropped (checksum error), count"
par Red.H_0.tn typename "\"inet.common.MessageDispatcher\""
par Red.H_0.tn displayStringTextFormat "\"processed %p pk (%l)\""
par Red.H_0.app[0] typename "\"inet.applications.rdmaapp.RdmaBasicApp\""
par Red.H_0.app[0] interfaceTableModule "\"Red.H_0.interfaceTable\""
par Red.H_0.app[0] clockModule "\"\""
par Red.H_0.app[0] localPort 1000
par Red.H_0.app[0] destAddresses "\"H_1\""
par Red.H_0.app[0] excludeLocalDestAddresses true
par Red.H_0.app[0] localAddress "\"\""
par Red.H_0.app[0] packetName "\"RdmaBasicAppData\""
par Red.H_0.app[0] destPort 1000
par Red.H_0.app[0] messageLength 65536B
attr unit B
par Red.H_0.app[0] startTime 32s
attr unit s
par Red.H_0.app[0] stopTime -1s
attr unit s
par Red.H_0.app[0] sendInterval 0.01s
attr unit s
par Red.H_0.app[0] dontFragment false
par Red.H_0.app[0] stopOperationExtraTime -1s
attr unit s
par Red.H_0.app[0] stopOperationTimeout 2s
attr unit s
scalar Red.H_0.app[0] "packets sent" 201
scalar Red.H_0.app[0] "packets received" 0
scalar Red.H_0.app[0] latency 0
scalar Red.H_0.app[0] meanLatency -nan
statistic Red.H_0.app[0] statsLatency
field count 0
field mean -nan
field stddev -nan
field min -nan
field max -nan
field sum 0
field sqrsum 0
scalar Red.H_0.app[0] latency:count 0
attr interpolationmode none
attr source latency
attr title "latency, count"
attr unit s
scalar Red.H_0.app[0] packetReceived:count 0
attr interpolationmode none
attr source packetReceived
attr title "packets received, count"
scalar Red.H_0.app[0] packetReceived:sum(packetBytes) 0
attr interpolationmode none
attr source packetReceived
attr title "packets received, sum(packetBytes)"
statistic Red.H_0.app[0] rcvdPkLifetime:stats
field count 0
field mean -nan
field stddev -nan
field min -nan
field max -nan
field sum 0
field sqrsum 0
attr interpolationmode none
attr source dataAge(packetReceived)
attr title "received packet lifetime, stats"
attr unit s
scalar Red.H_0.app[0] packetSent:count 201
attr interpolationmode none
attr source packetSent
attr title "packets sent, count"
scalar Red.H_0.app[0] packetSent:sum(packetBytes) 13172736
attr interpolationmode none
attr source packetSent
attr title "packets sent, sum(packetBytes)"
par Red.H_0.at typename "\"inet.common.MessageDispatcher\""
par Red.H_0.at displayStringTextFormat "\"processed %p pk (%l)\""
par Red.H_0 typename "\"inet.node.rdma.RdmaHost\""
par Red.H_0 hasStatus false
par Red.H_0 osgModel "\"\""
par Red.H_0 osgModelColor "\"\""
par Red.H_0 canvasImage "\"\""
par Red.H_0 canvasImageColor "\"\""
par Red.H_0 recordPcap false
par Red.H_0 numPcapRecorders 0
par Red.H_0 numLoInterfaces 1
par Red.H_0 numWlanInterfaces 0
par Red.H_0 numEthInterfaces 0
par Red.H_0 numPppInterfaces 0
par Red.H_0 numTunInterfaces 0
par Red.H_0 numVirtInterfaces 0
par Red.H_0 hasIpv4 true
par Red.H_0 hasIpv6 false
par Red.H_0 hasGn false
par Red.H_0 forwarding false
par Red.H_0 multicastForwarding false
par Red.H_0 hasRdma true
par Red.H_0 numApps 1
par Red.H_1.ethg$i[0].channel typename "\"ned.IdealChannel\""
par Red.H_1.eth[0].phys$o.channel typename "\"ned.IdealChannel\""
par Red.H_1.interfaceTable typename "\"inet.networklayer.common.InterfaceTable\""
par Red.H_1.interfaceTable displayAddresses false
par Red.H_1.li typename "\"inet.common.MessageDispatcher\""
par Red.H_1.li displayStringTextFormat "\"processed %p pk (%l)\""
par Red.H_1.lo[0].upperLayerIn.channel typename "\"ned.IdealChannel\""
par Red.H_1.lo[0].lo.upperLayerOut.channel typename "\"ned.IdealChannel\""
par Red.H_1.lo[0].lo.appLayerOut.channel typename "\"ned.IdealChannel\""
par Red.H_1.lo[0].lo typename "\"inet.linklayer.contract.rdma.Loopback\""
par Red.H_1.lo[0].lo interfaceTableModule "\"Red.H_1.interfaceTable\""
par Red.H_1.lo[0].lo mtu 4470B
attr unit B
scalar Red.H_1.lo[0].lo rcvdPkFromHl:count 0
attr interpolationmode none
attr source packetReceivedFromUpper
attr title "packets received from higher layer, count"
scalar Red.H_1.lo[0].lo rcvdPkFromHl:sum(packetBytes) 0
attr interpolationmode none
attr source packetReceivedFromUpper
attr title "packets received from higher layer, sum(packetBytes)"
scalar Red.H_1.lo[0].lo passedUpPk:count 0
attr interpolationmode none
attr source packetSentToUpper
attr title "packets passed to higher layer, count"
scalar Red.H_1.lo[0].lo passedUpPk:sum(packetBytes) 0
attr interpolationmode none
attr source packetSentToUpper
attr title "packets passed to higher layer, sum(packetBytes)"
par Red.H_1.lo[0] typename "\"inet.linklayer.contract.rdma.LoopbackInterface\""
par Red.H_1.lo[0] displayStringTextFormat "\"%a (%i)\\n%m\""
par Red.H_1.lo[0] recordPcap false
par Red.H_1.lo[0] numPcapRecorders 0
par Red.H_1.lo[0] interfaceTableModule "\"Red.H_1.interfaceTable\""
par Red.H_1.eth[0].mac.phys$o.channel typename "\"ned.IdealChannel\""
par Red.H_1.eth[0].phys$i.channel typename "\"ned.IdealChannel\""
par Red.H_1.eth[0].encap.appLayerOut.channel typename "\"ned.IdealChannel\""
par Red.H_1.eth[0].encap.upperLayerOut.channel typename "\"ned.IdealChannel\""
par Red.H_1.eth[0].upperLayerIn.channel typename "\"ned.IdealChannel\""
par Red.H_1.eth[0].encap typename "\"inet.linklayer.contract.rdma.EthernetEncapsulation\""
par Red.H_1.eth[0].encap interfaceTableModule "\"Red.H_1.interfaceTable\""
par Red.H_1.eth[0].encap useSNAP false
par Red.H_1.eth[0].encap fcsMode "\"declared\""
attr enum declared,computed
par Red.H_1.eth[0].encap registerProtocol false
par Red.H_1.eth[0].encap stopOperationExtraTime -1s
attr unit s
par Red.H_1.eth[0].encap stopOperationTimeout 2s
attr unit s
par Red.H_1.eth[0].encap isRdma true
scalar Red.H_1.eth[0].encap pauseSent:count 0
attr title "pause sent, count"
scalar Red.H_1.eth[0].encap pauseSent:sum 0
attr title "pause sent, sum"
scalar Red.H_1.eth[0].encap decapPk:count 29403
attr interpolationmode none
attr source decapPk
attr title "packets decapsulated, count"
scalar Red.H_1.eth[0].encap decapPk:sum(packetBytes) 40068138
attr interpolationmode none
attr source decapPk
attr title "packets decapsulated, sum(packetBytes)"
scalar Red.H_1.eth[0].encap encapPk:count 3
attr interpolationmode none
attr source encapPk
attr title "packets encapsulated, count"
scalar Red.H_1.eth[0].encap encapPk:sum(packetBytes) 84
attr interpolationmode none
attr source encapPk
attr title "packets encapsulated, sum(packetBytes)"
par Red.H_1.eth[0].mac.queue typename "\"inet.linklayer.ethernet.common.EthernetQueue\""
par Red.H_1.eth[0].mac.queue displayStringTextFormat "\"contains %p pk (%l) pushed %u\\npulled %o removed %r dropped %d\""
par Red.H_1.eth[0].mac.queue packetCapacity 10000
par Red.H_1.eth[0].mac.queue dataCapacity -1b
attr unit b
par Red.H_1.eth[0].mac.queue dropperClass "\"inet::queueing::PacketAtCollectionEndDropper\""
par Red.H_1.eth[0].mac.queue comparatorClass "\"inet::EthernetFrameTypeComparator\""
par Red.H_1.eth[0].mac.queue bufferModule "\"\""
scalar Red.H_1.eth[0].mac.queue packetPulled:count 3
attr interpolationmode none
attr title "packet pulled, count"
scalar Red.H_1.eth[0].mac.queue packetPulled:sum(packetBytes) 138
attr interpolationmode none
attr title "packet pulled, sum(packetBytes)"
statistic Red.H_1.eth[0].mac.queue queueingTime:histogram
field count 3
field mean 0
field stddev 0
field min 0
field max 0
field sum 0
field sqrsum 0
attr interpolationmode none
attr source queueingTime(packetPulled)
attr title "queueing times, histogram"
attr unit s
bin	-inf	0
bin	-0.5	0
bin	-0.48	0
bin	-0.46	0
bin	-0.44	0
bin	-0.42	0
bin	-0.4	0
bin	-0.38	0
bin	-0.36	0
bin	-0.34	0
bin	-0.32	0
bin	-0.3	0
bin	-0.28	0
bin	-0.26	0
bin	-0.24	0
bin	-0.22	0
bin	-0.2	0
bin	-0.18	0
bin	-0.16	0
bin	-0.14	0
bin	-0.12	0
bin	-0.1	0
bin	-0.08	0
bin	-0.06	0
bin	-0.04	0
bin	-0.02	0
bin	0	3
bin	0.02	0
bin	0.04	0
bin	0.06	0
bin	0.08	0
bin	0.1	0
bin	0.12	0
bin	0.14	0
bin	0.16	0
bin	0.18	0
bin	0.2	0
bin	0.22	0
bin	0.24	0
bin	0.26	0
bin	0.28	0
bin	0.3	0
bin	0.32	0
bin	0.34	0
bin	0.36	0
bin	0.38	0
bin	0.4	0
bin	0.42	0
bin	0.44	0
bin	0.46	0
bin	0.48	0
bin	0.5	0
scalar Red.H_1.eth[0].mac.queue queueLength:max 1
attr autoWarmupFilter false
attr interpolationmode sample-hold
attr source "warmup(count(packetPushed) - count(packetPulled) - count(packetRemoved) - count(packetDropped))"
attr title "queue length, max"
attr type int
scalar Red.H_1.eth[0].mac.queue queueLength:timeavg 0
attr autoWarmupFilter false
attr interpolationmode sample-hold
attr source "warmup(count(packetPushed) - count(packetPulled) - count(packetRemoved) - count(packetDropped))"
attr title "queue length, timeavg"
attr type int
scalar Red.H_1.eth[0].mac.queue packetPushed:count 3
attr interpolationmode none
attr title "packet pushed, count"
scalar Red.H_1.eth[0].mac.queue packetPushed:sum(packetBytes) 138
attr interpolationmode none
attr title "packet pushed, sum(packetBytes)"
scalar Red.H_1.eth[0].mac.queue packetDropQueueOverflow:count 0
attr interpolationmode none
attr source packetDropReasonIsQueueOverflow(packetDropped)
attr title "packet drops: queue overflow, count"
scalar Red.H_1.eth[0].mac.queue packetDropQueueOverflow:sum(packetBytes) 0
attr interpolationmode none
attr source packetDropReasonIsQueueOverflow(packetDropped)
attr title "packet drops: queue overflow, sum(packetBytes)"
scalar Red.H_1.eth[0].mac.queue packetRemoved:count 0
attr interpolationmode none
attr title "packets removed, count"
scalar Red.H_1.eth[0].mac.queue packetRemoved:sum(packetBytes) 0
attr interpolationmode none
attr title "packets removed, sum(packetBytes)"
par Red.H_1.eth[0].mac typename "\"inet.linklayer.ethernet.basic.EthernetMac\""
par Red.H_1.eth[0].mac interfaceTableModule "\"Red.H_1.interfaceTable\""
par Red.H_1.eth[0].mac displayStringTextFormat "\"rate: %b\\nsent: %s, rcvd: %r\\nqueue: %q, drop: %d\""
par Red.H_1.eth[0].mac sendRawBytes false
par Red.H_1.eth[0].mac promiscuous false
par Red.H_1.eth[0].mac duplexMode true
par Red.H_1.eth[0].mac mtu 1500B
attr unit B
par Red.H_1.eth[0].mac stopOperationExtraTime -1s
attr unit s
par Red.H_1.eth[0].mac stopOperationTimeout 2s
attr unit s
scalar Red.H_1.eth[0].mac "simulated time" 34
scalar Red.H_1.eth[0].mac full-duplex 1
scalar Red.H_1.eth[0].mac "frames/sec sent" 0.088235294117647
scalar Red.H_1.eth[0].mac "frames/sec rcvd" 865.76470588235
scalar Red.H_1.eth[0].mac "bits/sec sent" 45.176470588235
scalar Red.H_1.eth[0].mac "bits/sec rcvd" 9552824.4705882
scalar Red.H_1.eth[0].mac "rx channel idle (%)" 99.975979416471
scalar Red.H_1.eth[0].mac "rx channel utilization (%)" 0.024020583529412
scalar Red.H_1.eth[0].mac rxPausePkUnits:count 0
attr interpolationmode none
attr title "pause units received, count"
scalar Red.H_1.eth[0].mac rxPausePkUnits:sum 0
attr interpolationmode none
attr title "pause units received, sum"
scalar Red.H_1.eth[0].mac txPausePkUnits:count 0
attr interpolationmode none
attr title "pause units sent, count"
scalar Red.H_1.eth[0].mac txPausePkUnits:sum 0
attr interpolationmode none
attr title "pause units sent, sum"
scalar Red.H_1.eth[0].mac rxPkOk:count 29436
attr interpolationmode none
attr source rxPkOk
attr title "packets received OK, count"
scalar Red.H_1.eth[0].mac rxPkOk:sum(packetBytes) 40599504
attr interpolationmode none
attr source rxPkOk
attr title "packets received OK, sum(packetBytes)"
scalar Red.H_1.eth[0].mac txPk:count 3
attr interpolationmode none
attr source packetSentToLower
attr title "packets transmitted, count"
scalar Red.H_1.eth[0].mac txPk:sum(packetBytes) 192
attr interpolationmode none
attr source packetSentToLower
attr title "packets transmitted, sum(packetBytes)"
scalar Red.H_1.eth[0].mac packetReceivedFromUpper:count 3
attr interpolationmode none
attr source packetReceivedFromUpper
attr title "packet bytes from higher layer, count"
scalar Red.H_1.eth[0].mac packetReceivedFromUpper:sum(packetBytes) 138
attr interpolationmode none
attr source packetReceivedFromUpper
attr title "packet bytes from higher layer, sum(packetBytes)"
scalar Red.H_1.eth[0].mac passedUpPk:count 29436
attr interpolationmode none
attr source packetSentToUpper
attr title "packets passed to higher layer, count"
scalar Red.H_1.eth[0].mac passedUpPk:sum(packetBytes) 40599504
attr interpolationmode none
attr source packetSentToUpper
attr title "packets passed to higher layer, sum(packetBytes)"
scalar Red.H_1.eth[0].mac packetDropIncorrectlyReceived:count 0
attr interpolationmode none
attr source packetDropReasonIsIncorrectlyReceived(packetDropped)
attr title "packet drop: incorrectly received, count"
scalar Red.H_1.eth[0].mac packetDropIncorrectlyReceived:sum(packetBytes) 0
attr interpolationmode none
attr source packetDropReasonIsIncorrectlyReceived(packetDropped)
attr title "packet drop: incorrectly received, sum(packetBytes)"
scalar Red.H_1.eth[0].mac packetDropInterfaceDown:count 0
attr interpolationmode none
attr source packetDropReasonIsInterfaceDown(packetDropped)
attr title "packet drop: interface down, count"
scalar Red.H_1.eth[0].mac packetDropInterfaceDown:sum(packetBytes) 0
attr interpolationmode none
attr source packetDropReasonIsInterfaceDown(packetDropped)
attr title "packet drop: interface down, sum(packetBytes)"
scalar Red.H_1.eth[0].mac packetDropNotAddressedToUs:count 0
attr interpolationmode none
attr source packetDropReasonIsNotAddressedToUs(packetDropped)
attr title "packet drop: not addressed to us, count"
scalar Red.H_1.eth[0].mac packetDropNotAddressedToUs:sum(packetBytes) 0
attr interpolationmode none
attr source packetDropReasonIsNotAddressedToUs(packetDropped)
attr title "packet drop: not addressed to us, sum(packetBytes)"
par Red.H_1.eth[0] typename "\"inet.linklayer.contract.rdma.EthernetInterface\""
par Red.H_1.eth[0] displayStringTextFormat "\"%a (%i)\\n%m\""
par Red.H_1.eth[0] recordPcap false
par Red.H_1.eth[0] numPcapRecorders 0
par Red.H_1.eth[0] interfaceTableModule "\"Red.H_1.interfaceTable\""
par Red.H_1.eth[0] address "\"0A-AA-00-00-00-02\""
par Red.H_1.eth[0] duplexMode true
par Red.H_1.eth[0] csmacdSupport false
par Red.H_1.eth[0] bitrate 0bps
attr unit bps
par Red.H_1.eth[0] fcsMode "\"declared\""
attr enum declared,computed
par Red.H_1.ipv4.transportIn.channel typename "\"ned.IdealChannel\""
par Red.H_1.ipv4.up.out[0].channel typename "\"ned.IdealChannel\""
par Red.H_1.ipv4.lp.out[2].channel typename "\"ned.IdealChannel\""
par Red.H_1.ipv4.ifIn.channel typename "\"ned.IdealChannel\""
par Red.H_1.ipv4.configurator typename "\"inet.networklayer.configurator.ipv4.Ipv4NodeConfigurator\""
par Red.H_1.ipv4.configurator interfaceTableModule "\"Red.H_1.interfaceTable\""
par Red.H_1.ipv4.configurator routingTableModule "\"Red.H_1.ipv4.routingTable\""
par Red.H_1.ipv4.configurator networkConfiguratorModule "\"configurator\""
par Red.H_1.ipv4.configurator configureRoutingTable true
par Red.H_1.ipv4.routingTable typename "\"inet.networklayer.ipv4.Ipv4RoutingTable\""
par Red.H_1.ipv4.routingTable interfaceTableModule "\"Red.H_1.interfaceTable\""
par Red.H_1.ipv4.routingTable routerId "\"auto\""
par Red.H_1.ipv4.routingTable netmaskRoutes "\"*\""
par Red.H_1.ipv4.routingTable forwarding false
par Red.H_1.ipv4.routingTable multicastForwarding false
par Red.H_1.ipv4.routingTable useAdminDist false
par Red.H_1.ipv4.routingTable routingFile "\"\""
par Red.H_1.ipv4.natTable typename "\"inet.networklayer.ipv4.Ipv4NatTable\""
par Red.H_1.ipv4.natTable networkProtocolModule "\"^.ip\""
par Red.H_1.ipv4.natTable config "<config/> at content:1"
par Red.H_1.ipv4.up typename "\"inet.common.MessageDispatcher\""
par Red.H_1.ipv4.up displayStringTextFormat "\"processed %p pk (%l)\""
par Red.H_1.ipv4.igmp typename "\"inet.networklayer.ipv4.Igmpv2\""
par Red.H_1.ipv4.igmp interfaceTableModule "\"Red.H_1.interfaceTable\""
par Red.H_1.ipv4.igmp routingTableModule "\"Red.H_1.ipv4.routingTable\""
par Red.H_1.ipv4.igmp crcMode "\"declared\""
attr enum declared,computed
par Red.H_1.ipv4.igmp enabled true
par Red.H_1.ipv4.igmp robustnessVariable 2
par Red.H_1.ipv4.igmp queryInterval 125s
attr unit s
par Red.H_1.ipv4.igmp queryResponseInterval 10s
attr unit s
par Red.H_1.ipv4.igmp groupMembershipInterval 260s
attr unit s
par Red.H_1.ipv4.igmp otherQuerierPresentInterval 255s
attr unit s
par Red.H_1.ipv4.igmp startupQueryInterval 31.25s
attr unit s
par Red.H_1.ipv4.igmp startupQueryCount 2
par Red.H_1.ipv4.igmp lastMemberQueryInterval 1s
attr unit s
par Red.H_1.ipv4.igmp lastMemberQueryCount 2
par Red.H_1.ipv4.igmp unsolicitedReportInterval 10s
attr unit s
par Red.H_1.ipv4.icmp typename "\"inet.networklayer.ipv4.Icmp\""
par Red.H_1.ipv4.icmp interfaceTableModule "\"Red.H_1.interfaceTable\""
par Red.H_1.ipv4.icmp routingTableModule "\"Red.H_1.ipv4.routingTable\""
par Red.H_1.ipv4.icmp crcMode "\"declared\""
attr enum declared,computed
par Red.H_1.ipv4.icmp quoteLength 8B
attr unit B
par Red.H_1.ipv4.mp typename "\"inet.common.MessageDispatcher\""
par Red.H_1.ipv4.mp displayStringTextFormat "\"processed %p pk (%l)\""
par Red.H_1.ipv4.ip typename "\"inet.networklayer.ipv4.Ipv4\""
par Red.H_1.ipv4.ip interfaceTableModule "\"Red.H_1.interfaceTable\""
par Red.H_1.ipv4.ip routingTableModule "\"Red.H_1.ipv4.routingTable\""
par Red.H_1.ipv4.ip arpModule "\"Red.H_1.ipv4.arp\""
par Red.H_1.ipv4.ip icmpModule "\"Red.H_1.ipv4.icmp\""
par Red.H_1.ipv4.ip crcMode "\"declared\""
attr enum declared,computed
par Red.H_1.ipv4.ip timeToLive 32
par Red.H_1.ipv4.ip multicastTimeToLive 32
par Red.H_1.ipv4.ip fragmentTimeout 60s
attr unit s
par Red.H_1.ipv4.ip limitedBroadcast false
par Red.H_1.ipv4.ip directBroadcastInterfaces "\"\""
scalar Red.H_1.ipv4.ip packetDropAddressResolutionFailed:count 0
attr interpolationmode none
attr source packetDropReasonIsAddressResolutionFailed(packetDropped)
attr title "packet drop: address resolution failed, count"
scalar Red.H_1.ipv4.ip packetDropAddressResolutionFailed:sum(packetBytes) 0
attr interpolationmode none
attr source packetDropReasonIsAddressResolutionFailed(packetDropped)
attr title "packet drop: address resolution failed, sum(packetBytes)"
scalar Red.H_1.ipv4.ip packetDropHopLimitReached:count 0
attr interpolationmode none
attr source packetDropReasonIsHopLimitReached(packetDropped)
attr title "packet drop: hop limit reached, count"
scalar Red.H_1.ipv4.ip packetDropHopLimitReached:sum(packetBytes) 0
attr interpolationmode none
attr source packetDropReasonIsHopLimitReached(packetDropped)
attr title "packet drop: hop limit reached, sum(packetBytes)"
scalar Red.H_1.ipv4.ip packetDropForwardingDisabled:count 0
attr interpolationmode none
attr source packetDropReasonIsForwardingDisabled(packetDropped)
attr title "packet drop: forwarding disabled, count"
scalar Red.H_1.ipv4.ip packetDropForwardingDisabled:sum(packetBytes) 0
attr interpolationmode none
attr source packetDropReasonIsForwardingDisabled(packetDropped)
attr title "packet drop: forwarding disabled, sum(packetBytes)"
scalar Red.H_1.ipv4.ip packetDropNoInterfaceFound:count 0
attr interpolationmode none
attr source packetDropReasonIsNoInterfaceFound(packetDropped)
attr title "packet drop: no interface found, count"
scalar Red.H_1.ipv4.ip packetDropNoInterfaceFound:sum(packetBytes) 0
attr interpolationmode none
attr source packetDropReasonIsNoInterfaceFound(packetDropped)
attr title "packet drop: no interface found, sum(packetBytes)"
scalar Red.H_1.ipv4.ip packetDropNoRouteFound:count 0
attr interpolationmode none
attr source packetDropReasonIsNoRouteFound(packetDropped)
attr title "packet drop: no route found, count"
scalar Red.H_1.ipv4.ip packetDropNoRouteFound:sum(packetBytes) 0
attr interpolationmode none
attr source packetDropReasonIsNoRouteFound(packetDropped)
attr title "packet drop: no route found, sum(packetBytes)"
scalar Red.H_1.ipv4.ip packetDropUndefined:count 0
attr interpolationmode none
attr source packetDropReasonIsUndefined(packetDropped)
attr title "packet drop: undefined, count"
scalar Red.H_1.ipv4.ip packetDropUndefined:sum(packetBytes) 0
attr interpolationmode none
attr source packetDropReasonIsUndefined(packetDropped)
attr title "packet drop: undefined, sum(packetBytes)"
par Red.H_1.ipv4.arp typename "\"inet.networklayer.arp.ipv4.Arp\""
par Red.H_1.ipv4.arp interfaceTableModule "\"Red.H_1.interfaceTable\""
par Red.H_1.ipv4.arp routingTableModule "\"Red.H_1.ipv4.routingTable\""
par Red.H_1.ipv4.arp retryTimeout 1s
attr unit s
par Red.H_1.ipv4.arp retryCount 3
par Red.H_1.ipv4.arp cacheTimeout 120s
attr unit s
par Red.H_1.ipv4.arp proxyArpInterfaces "\"*\""
scalar Red.H_1.ipv4.arp arpResolutionFailed:count 0
attr title "ARP failed resolutions, count"
scalar Red.H_1.ipv4.arp arpResolutionCompleted:count 3
attr title "ARP completed resolutions, count"
scalar Red.H_1.ipv4.arp arpResolutionInitiated:count 0
attr title "ARP initiated resolutions, count"
scalar Red.H_1.ipv4.arp arpReplySent:count 3
attr source arpReplySent
attr title "ARP replies sent, count"
scalar Red.H_1.ipv4.arp arpReplySent:sum(packetBytes) 84
attr source arpReplySent
attr title "ARP replies sent, sum(packetBytes)"
scalar Red.H_1.ipv4.arp arpRequestSent:count 0
attr source arpRequestSent
attr title "ARP request sent, count"
scalar Red.H_1.ipv4.arp arpRequestSent:sum(packetBytes) 0
attr source arpRequestSent
attr title "ARP request sent, sum(packetBytes)"
par Red.H_1.ipv4.lp typename "\"inet.common.MessageDispatcher\""
par Red.H_1.ipv4.lp displayStringTextFormat "\"processed %p pk (%l)\""
par Red.H_1.ipv4 typename "\"inet.networklayer.ipv4.Ipv4NetworkLayer\""
par Red.H_1.ipv4 isRdma true
par Red.H_1.ipv4 forwarding false
par Red.H_1.ipv4 multicastForwarding false
par Red.H_1.ipv4 interfaceTableModule "\"Red.H_1.interfaceTable\""
par Red.H_1.ipv4 displayStringTextFormat "\"%i\""
par Red.H_1.nl typename "\"inet.common.MessageDispatcher\""
par Red.H_1.nl displayStringTextFormat "\"processed %p pk (%l)\""
par Red.H_1.rdma typename "\"inet.transportlayer.rdma.Rdma\""
par Red.H_1.rdma interfaceTableModule "\"Red.H_1.interfaceTable\""
par Red.H_1.rdma crcMode "\"declared\""
attr enum disabled,declared,computed
scalar Red.H_1.rdma packetReceived:count 0
attr interpolationmode none
attr source packetReceived
attr title "packets received, count"
scalar Red.H_1.rdma packetReceived:sum(packetBytes) 0
attr interpolationmode none
attr source packetReceived
attr title "packets received, sum(packetBytes)"
scalar Red.H_1.rdma packetSent:count 0
attr interpolationmode none
attr source packetSent
attr title "packets sent, count"
scalar Red.H_1.rdma packetSent:sum(packetBytes) 0
attr interpolationmode none
attr source packetSent
attr title "packets sent, sum(packetBytes)"
scalar Red.H_1.rdma passedUpPk:count 0
attr interpolationmode none
attr source packetSentToUpper
attr title "packets passed up, count"
scalar Red.H_1.rdma droppedPkWrongPort:count 0
attr interpolationmode none
attr source packetDropReasonIsNoPortFound(packetDropped)
attr title "packets dropped (wrong port), count"
scalar Red.H_1.rdma droppedPkBadChecksum:count 0
attr interpolationmode none
attr source packetDropReasonIsIncorrectlyReceived(packetDropped)
attr title "packets dropped (checksum error), count"
par Red.H_1.tn typename "\"inet.common.MessageDispatcher\""
par Red.H_1.tn displayStringTextFormat "\"processed %p pk (%l)\""
par Red.H_1.app[0] typename "\"inet.applications.rdmaapp.RdmaBasicApp\""
par Red.H_1.app[0] interfaceTableModule "\"Red.H_1.interfaceTable\""
par Red.H_1.app[0] clockModule "\"\""
par Red.H_1.app[0] localPort 1000
par Red.H_1.app[0] destAddresses "\"\""
par Red.H_1.app[0] excludeLocalDestAddresses true
par Red.H_1.app[0] localAddress "\"\""
par Red.H_1.app[0] packetName "\"RdmaBasicAppData\""
par Red.H_1.app[0] destPort 1000
par Red.H_1.app[0] messageLength 65536B
attr unit B
par Red.H_1.app[0] startTime 32s
attr unit s
par Red.H_1.app[0] stopTime -1s
attr unit s
par Red.H_1.app[0] sendInterval 0.01s
attr unit s
par Red.H_1.app[0] dontFragment false
par Red.H_1.app[0] stopOperationExtraTime -1s
attr unit s
par Red.H_1.app[0] stopOperationTimeout 2s
attr unit s
scalar Red.H_1.app[0] "packets sent" 0
scalar Red.H_1.app[0] "packets received" 599
scalar Red.H_1.app[0] latency 0
scalar Red.H_1.app[0] meanLatency 0
statistic Red.H_1.app[0] statsLatency
field count 599
field mean 1.4385933889816e-05
field stddev 1.1198348781298e-05
field min 6.604e-07
field max 2.8236e-05
field sum 0.0086171744
field sqrsum 1.9895710446112e-07
scalar Red.H_1.app[0] latency:count 0
attr interpolationmode none
attr source latency
attr title "latency, count"
attr unit s
scalar Red.H_1.app[0] packetReceived:count 599
attr interpolationmode none
attr source packetReceived
attr title "packets received, count"
scalar Red.H_1.app[0] packetReceived:sum(packetBytes) 831636
attr interpolationmode none
attr source packetReceived
attr title "packets received, sum(packetBytes)"
statistic Red.H_1.app[0] rcvdPkLifetime:stats
field count 599
field mean 1.4385933889816e-05
field stddev 1.1198348781298e-05
field min 6.604e-07
field max 2.8236e-05
field sum 0.0086171744
field sqrsum 1.9895710446112e-07
attr interpolationmode none
attr source dataAge(packetReceived)
attr title "received packet lifetime, stats"
attr unit s
scalar Red.H_1.app[0] packetSent:count 0
attr interpolationmode none
attr source packetSent
attr title "packets sent, count"
scalar Red.H_1.app[0] packetSent:sum(packetBytes) 0
attr interpolationmode none
attr source packetSent
attr title "packets sent, sum(packetBytes)"
par Red.H_1.at typename "\"inet.common.MessageDispatcher\""
par Red.H_1.at displayStringTextFormat "\"processed %p pk (%l)\""
par Red.H_1 typename "\"inet.node.rdma.RdmaHost\""
par Red.H_1 hasStatus false
par Red.H_1 osgModel "\"\""
par Red.H_1 osgModelColor "\"\""
par Red.H_1 canvasImage "\"\""
par Red.H_1 canvasImageColor "\"\""
par Red.H_1 recordPcap false
par Red.H_1 numPcapRecorders 0
par Red.H_1 numLoInterfaces 1
par Red.H_1 numWlanInterfaces 0
par Red.H_1 numEthInterfaces 0
par Red.H_1 numPppInterfaces 0
par Red.H_1 numTunInterfaces 0
par Red.H_1 numVirtInterfaces 0
par Red.H_1 hasIpv4 true
par Red.H_1 hasIpv6 false
par Red.H_1 hasGn false
par Red.H_1 forwarding false
par Red.H_1 multicastForwarding false
par Red.H_1 hasRdma true
par Red.H_1 numApps 1
par Red.H_2.ethg$i[0].channel typename "\"ned.IdealChannel\""
par Red.H_2.eth[0].phys$o.channel typename "\"ned.IdealChannel\""
par Red.H_2.interfaceTable typename "\"inet.networklayer.common.InterfaceTable\""
par Red.H_2.interfaceTable displayAddresses false
par Red.H_2.li typename "\"inet.common.MessageDispatcher\""
par Red.H_2.li displayStringTextFormat "\"processed %p pk (%l)\""
par Red.H_2.lo[0].upperLayerIn.channel typename "\"ned.IdealChannel\""
par Red.H_2.lo[0].lo.upperLayerOut.channel typename "\"ned.IdealChannel\""
par Red.H_2.lo[0].lo.appLayerOut.channel typename "\"ned.IdealChannel\""
par Red.H_2.lo[0].lo typename "\"inet.linklayer.contract.rdma.Loopback\""
par Red.H_2.lo[0].lo interfaceTableModule "\"Red.H_2.interfaceTable\""
par Red.H_2.lo[0].lo mtu 4470B
attr unit B
scalar Red.H_2.lo[0].lo rcvdPkFromHl:count 0
attr interpolationmode none
attr source packetReceivedFromUpper
attr title "packets received from higher layer, count"
scalar Red.H_2.lo[0].lo rcvdPkFromHl:sum(packetBytes) 0
attr interpolationmode none
attr source packetReceivedFromUpper
attr title "packets received from higher layer, sum(packetBytes)"
scalar Red.H_2.lo[0].lo passedUpPk:count 0
attr interpolationmode none
attr source packetSentToUpper
attr title "packets passed to higher layer, count"
scalar Red.H_2.lo[0].lo passedUpPk:sum(packetBytes) 0
attr interpolationmode none
attr source packetSentToUpper
attr title "packets passed to higher layer, sum(packetBytes)"
par Red.H_2.lo[0] typename "\"inet.linklayer.contract.rdma.LoopbackInterface\""
par Red.H_2.lo[0] displayStringTextFormat "\"%a (%i)\\n%m\""
par Red.H_2.lo[0] recordPcap false
par Red.H_2.lo[0] numPcapRecorders 0
par Red.H_2.lo[0] interfaceTableModule "\"Red.H_2.interfaceTable\""
par Red.H_2.eth[0].mac.phys$o.channel typename "\"ned.IdealChannel\""
par Red.H_2.eth[0].phys$i.channel typename "\"ned.IdealChannel\""
par Red.H_2.eth[0].encap.appLayerOut.channel typename "\"ned.IdealChannel\""
par Red.H_2.eth[0].encap.upperLayerOut.channel typename "\"ned.IdealChannel\""
par Red.H_2.eth[0].upperLayerIn.channel typename "\"ned.IdealChannel\""
par Red.H_2.eth[0].encap typename "\"inet.linklayer.contract.rdma.EthernetEncapsulation\""
par Red.H_2.eth[0].encap interfaceTableModule "\"Red.H_2.interfaceTable\""
par Red.H_2.eth[0].encap useSNAP false
par Red.H_2.eth[0].encap fcsMode "\"declared\""
attr enum declared,computed
par Red.H_2.eth[0].encap registerProtocol false
par Red.H_2.eth[0].encap stopOperationExtraTime -1s
attr unit s
par Red.H_2.eth[0].encap stopOperationTimeout 2s
attr unit s
par Red.H_2.eth[0].encap isRdma true
scalar Red.H_2.eth[0].encap pauseSent:count 0
attr title "pause sent, count"
scalar Red.H_2.eth[0].encap pauseSent:sum 0
attr title "pause sent, sum"
scalar Red.H_2.eth[0].encap decapPk:count 3
attr interpolationmode none
attr source decapPk
attr title "packets decapsulated, count"
scalar Red.H_2.eth[0].encap decapPk:sum(packetBytes) 138
attr interpolationmode none
attr source decapPk
attr title "packets decapsulated, sum(packetBytes)"
scalar Red.H_2.eth[0].encap encapPk:count 9850
attr interpolationmode none
attr source encapPk
attr title "packets encapsulated, count"
scalar Red.H_2.eth[0].encap encapPk:sum(packetBytes) 13422808
attr interpolationmode none
attr source encapPk
attr title "packets encapsulated, sum(packetBytes)"
par Red.H_2.eth[0].mac.queue typename "\"inet.linklayer.ethernet.common.EthernetQueue\""
par Red.H_2.eth[0].mac.queue displayStringTextFormat "\"contains %p pk (%l) pushed %u\\npulled %o removed %r dropped %d\""
par Red.H_2.eth[0].mac.queue packetCapacity 10000
par Red.H_2.eth[0].mac.queue dataCapacity -1b
attr unit b
par Red.H_2.eth[0].mac.queue dropperClass "\"inet::queueing::PacketAtCollectionEndDropper\""
par Red.H_2.eth[0].mac.queue comparatorClass "\"inet::EthernetFrameTypeComparator\""
par Red.H_2.eth[0].mac.queue bufferModule "\"\""
scalar Red.H_2.eth[0].mac.queue packetPulled:count 9802
attr interpolationmode none
attr title "packet pulled, count"
scalar Red.H_2.eth[0].mac.queue packetPulled:sum(packetBytes) 13533964
attr interpolationmode none
attr title "packet pulled, sum(packetBytes)"
statistic Red.H_2.eth[0].mac.queue queueingTime:histogram
field count 9802
field mean 6.8653417669864e-06
field stddev 4.0346241003553e-06
field min 0
field max 1.36896e-05
field sum 0.067294080000001
field sqrsum 6.21539414272e-07
attr interpolationmode none
attr source queueingTime(packetPulled)
attr title "queueing times, histogram"
attr unit s
bin	-inf	0
bin	0	202
bin	2e-07	200
bin	4e-07	0
bin	6e-07	200
bin	8e-07	200
bin	1e-06	200
bin	1.2e-06	0
bin	1.4e-06	200
bin	1.6e-06	200
bin	1.8e-06	0
bin	2e-06	200
bin	2.2e-06	200
bin	2.4e-06	200
bin	2.6e-06	0
bin	2.8e-06	200
bin	3e-06	200
bin	3.2e-06	0
bin	3.4e-06	200
bin	3.6e-06	200
bin	3.8e-06	0
bin	4e-06	200
bin	4.2e-06	200
bin	4.4e-06	200
bin	4.6e-06	0
bin	4.8e-06	200
bin	5e-06	200
bin	5.2e-06	0
bin	5.4e-06	200
bin	5.6e-06	200
bin	5.8e-06	200
bin	6e-06	0
bin	6.2e-06	200
bin	6.4e-06	0
bin	6.6e-06	200
bin	6.8e-06	200
bin	7e-06	200
bin	7.2e-06	0
bin	7.4e-06	200
bin	7.6e-06	200
bin	7.8e-06	0
bin	8e-06	200
bin	8.2e-06	200
bin	8.4e-06	200
bin	8.6e-06	0
bin	8.8e-06	200
bin	9e-06	200
bin	9.2e-06	0
bin	9.4e-06	200
bin	9.6e-06	200
bin	9.8e-06	0
bin	1e-05	200
bin	1.02e-05	200
bin	1.04e-05	200
bin	1.06e-05	0
bin	1.08e-05	200
bin	1.1e-05	200
bin	1.12e-05	0
bin	1.14e-05	200
bin	1.16e-05	200
bin	1.18e-05	200
bin	1.2e-05	0
bin	1.22e-05	200
bin	1.24e-05	200
bin	1.26e-05	0
bin	1.28e-05	200
bin	1.3e-05	200
bin	1.32e-05	0
bin	1.34e-05	200
bin	1.36e-05	200
bin	1.38e-05	0
bin	1.4e-05	0
bin	1.42e-05	0
bin	1.44e-05	0
bin	1.46e-05	0
bin	1.48e-05	0
bin	1.5e-05	0
bin	1.52e-05	0
bin	1.54e-05	0
bin	1.56e-05	0
bin	1.58e-05	0
bin	1.6e-05	0
bin	1.62e-05	0
bin	1.64e-05	0
bin	1.66e-05	0
bin	1.68e-05	0
bin	1.7e-05	0
bin	1.72e-05	0
scalar Red.H_2.eth[0].mac.queue queueLength:max 48
attr autoWarmupFilter false
attr interpolationmode sample-hold
attr source "warmup(count(packetPushed) - count(packetPulled) - count(packetRemoved) - count(packetDropped))"
attr title "queue length, max"
attr type int
scalar Red.H_2.eth[0].mac.queue queueLength:timeavg 0.03364704
attr autoWarmupFilter false
attr interpolationmode sample-hold
attr source "warmup(count(packetPushed) - count(packetPulled) - count(packetRemoved) - count(packetDropped))"
attr title "queue length, timeavg"
attr type int
scalar Red.H_2.eth[0].mac.queue packetPushed:count 9850
attr interpolationmode none
attr title "packet pushed, count"
scalar Red.H_2.eth[0].mac.queue packetPushed:sum(packetBytes) 13600108
attr interpolationmode none
attr title "packet pushed, sum(packetBytes)"
scalar Red.H_2.eth[0].mac.queue packetDropQueueOverflow:count 0
attr interpolationmode none
attr source packetDropReasonIsQueueOverflow(packetDropped)
attr title "packet drops: queue overflow, count"
scalar Red.H_2.eth[0].mac.queue packetDropQueueOverflow:sum(packetBytes) 0
attr interpolationmode none
attr source packetDropReasonIsQueueOverflow(packetDropped)
attr title "packet drops: queue overflow, sum(packetBytes)"
scalar Red.H_2.eth[0].mac.queue packetRemoved:count 0
attr interpolationmode none
attr title "packets removed, count"
scalar Red.H_2.eth[0].mac.queue packetRemoved:sum(packetBytes) 0
attr interpolationmode none
attr title "packets removed, sum(packetBytes)"
par Red.H_2.eth[0].mac typename "\"inet.linklayer.ethernet.basic.EthernetMac\""
par Red.H_2.eth[0].mac interfaceTableModule "\"Red.H_2.interfaceTable\""
par Red.H_2.eth[0].mac displayStringTextFormat "\"rate: %b\\nsent: %s, rcvd: %r\\nqueue: %q, drop: %d\""
par Red.H_2.eth[0].mac sendRawBytes false
par Red.H_2.eth[0].mac promiscuous false
par Red.H_2.eth[0].mac duplexMode true
par Red.H_2.eth[0].mac mtu 1500B
attr unit B
par Red.H_2.eth[0].mac stopOperationExtraTime -1s
attr unit s
par Red.H_2.eth[0].mac stopOperationTimeout 2s
attr unit s
scalar Red.H_2.eth[0].mac "simulated time" 34
scalar Red.H_2.eth[0].mac full-duplex 1
scalar Red.H_2.eth[0].mac "frames/sec sent" 288.26470588235
scalar Red.H_2.eth[0].mac "frames/sec rcvd" 1.1176470588235
scalar Red.H_2.eth[0].mac "bits/sec sent" 3184109.1764706
scalar Red.H_2.eth[0].mac "bits/sec rcvd" 572.23529411765
scalar Red.H_2.eth[0].mac "rx channel idle (%)" 99.999998390588
scalar Red.H_2.eth[0].mac "rx channel utilization (%)" 1.6094117647059e-06
scalar Red.H_2.eth[0].mac rxPausePkUnits:count 0
attr interpolationmode none
attr title "pause units received, count"
scalar Red.H_2.eth[0].mac rxPausePkUnits:sum 0
attr interpolationmode none
attr title "pause units received, sum"
scalar Red.H_2.eth[0].mac txPausePkUnits:count 0
attr interpolationmode none
attr title "pause units sent, count"
scalar Red.H_2.eth[0].mac txPausePkUnits:sum 0
attr interpolationmode none
attr title "pause units sent, sum"
scalar Red.H_2.eth[0].mac rxPkOk:count 38
attr interpolationmode none
attr source rxPkOk
attr title "packets received OK, count"
scalar Red.H_2.eth[0].mac rxPkOk:sum(packetBytes) 2432
attr interpolationmode none
attr source rxPkOk
attr title "packets received OK, sum(packetBytes)"
scalar Red.H_2.eth[0].mac txPk:count 9801
attr interpolationmode none
attr source packetSentToLower
attr title "packets transmitted, count"
scalar Red.H_2.eth[0].mac txPk:sum(packetBytes) 13532464
attr interpolationmode none
attr source packetSentToLower
attr title "packets transmitted, sum(packetBytes)"
scalar Red.H_2.eth[0].mac packetReceivedFromUpper:count 9850
attr interpolationmode none
attr source packetReceivedFromUpper
attr title "packet bytes from higher layer, count"
scalar Red.H_2.eth[0].mac packetReceivedFromUpper:sum(packetBytes) 13600108
attr interpolationmode none
attr source packetReceivedFromUpper
attr title "packet bytes from higher layer, sum(packetBytes)"
scalar Red.H_2.eth[0].mac passedUpPk:count 38
attr interpolationmode none
attr source packetSentToUpper
attr title "packets passed to higher layer, count"
scalar Red.H_2.eth[0].mac passedUpPk:sum(packetBytes) 2432
attr interpolationmode none
attr source packetSentToUpper
attr title "packets passed to higher layer, sum(packetBytes)"
scalar Red.H_2.eth[0].mac packetDropIncorrectlyReceived:count 0
attr interpolationmode none
attr source packetDropReasonIsIncorrectlyReceived(packetDropped)
attr title "packet drop: incorrectly received, count"
scalar Red.H_2.eth[0].mac packetDropIncorrectlyReceived:sum(packetBytes) 0
attr interpolationmode none
attr source packetDropReasonIsIncorrectlyReceived(packetDropped)
attr title "packet drop: incorrectly received, sum(packetBytes)"
scalar Red.H_2.eth[0].mac packetDropInterfaceDown:count 0
attr interpolationmode none
attr source packetDropReasonIsInterfaceDown(packetDropped)
attr title "packet drop: interface down, count"
scalar Red.H_2.eth[0].mac packetDropInterfaceDown:sum(packetBytes) 0
attr interpolationmode none
attr source packetDropReasonIsInterfaceDown(packetDropped)
attr title "packet drop: interface down, sum(packetBytes)"
scalar Red.H_2.eth[0].mac packetDropNotAddressedToUs:count 0
attr interpolationmode none
attr source packetDropReasonIsNotAddressedToUs(packetDropped)
attr title "packet drop: not addressed to us, count"
scalar Red.H_2.eth[0].mac packetDropNotAddressedToUs:sum(packetBytes) 0
attr interpolationmode none
attr source packetDropReasonIsNotAddressedToUs(packetDropped)
attr title "packet drop: not addressed to us, sum(packetBytes)"
par Red.H_2.eth[0] typename "\"inet.linklayer.contract.rdma.EthernetInterface\""
par Red.H_2.eth[0] displayStringTextFormat "\"%a (%i)\\n%m\""
par Red.H_2.eth[0] recordPcap false
par Red.H_2.eth[0] numPcapRecorders 0
par Red.H_2.eth[0] interfaceTableModule "\"Red.H_2.interfaceTable\""
par Red.H_2.eth[0] address "\"0A-AA-00-00-00-03\""
par Red.H_2.eth[0] duplexMode true
par Red.H_2.eth[0] csmacdSupport false
par Red.H_2.eth[0] bitrate 0bps
attr unit bps
par Red.H_2.eth[0] fcsMode "\"declared\""
attr enum declared,computed
par Red.H_2.ipv4.transportIn.channel typename "\"ned.IdealChannel\""
par Red.H_2.ipv4.up.out[0].channel typename "\"ned.IdealChannel\""
par Red.H_2.ipv4.lp.out[2].channel typename "\"ned.IdealChannel\""
par Red.H_2.ipv4.ifIn.channel typename "\"ned.IdealChannel\""
par Red.H_2.ipv4.configurator typename "\"inet.networklayer.configurator.ipv4.Ipv4NodeConfigurator\""
par Red.H_2.ipv4.configurator interfaceTableModule "\"Red.H_2.interfaceTable\""
par Red.H_2.ipv4.configurator routingTableModule "\"Red.H_2.ipv4.routingTable\""
par Red.H_2.ipv4.configurator networkConfiguratorModule "\"configurator\""
par Red.H_2.ipv4.configurator configureRoutingTable true
par Red.H_2.ipv4.routingTable typename "\"inet.networklayer.ipv4.Ipv4RoutingTable\""
par Red.H_2.ipv4.routingTable interfaceTableModule "\"Red.H_2.interfaceTable\""
par Red.H_2.ipv4.routingTable routerId "\"auto\""
par Red.H_2.ipv4.routingTable netmaskRoutes "\"*\""
par Red.H_2.ipv4.routingTable forwarding false
par Red.H_2.ipv4.routingTable multicastForwarding false
par Red.H_2.ipv4.routingTable useAdminDist false
par Red.H_2.ipv4.routingTable routingFile "\"\""
par Red.H_2.ipv4.natTable typename "\"inet.networklayer.ipv4.Ipv4NatTable\""
par Red.H_2.ipv4.natTable networkProtocolModule "\"^.ip\""
par Red.H_2.ipv4.natTable config "<config/> at content:1"
par Red.H_2.ipv4.up typename "\"inet.common.MessageDispatcher\""
par Red.H_2.ipv4.up displayStringTextFormat "\"processed %p pk (%l)\""
par Red.H_2.ipv4.igmp typename "\"inet.networklayer.ipv4.Igmpv2\""
par Red.H_2.ipv4.igmp interfaceTableModule "\"Red.H_2.interfaceTable\""
par Red.H_2.ipv4.igmp routingTableModule "\"Red.H_2.ipv4.routingTable\""
par Red.H_2.ipv4.igmp crcMode "\"declared\""
attr enum declared,computed
par Red.H_2.ipv4.igmp enabled true
par Red.H_2.ipv4.igmp robustnessVariable 2
par Red.H_2.ipv4.igmp queryInterval 125s
attr unit s
par Red.H_2.ipv4.igmp queryResponseInterval 10s
attr unit s
par Red.H_2.ipv4.igmp groupMembershipInterval 260s
attr unit s
par Red.H_2.ipv4.igmp otherQuerierPresentInterval 255s
attr unit s
par Red.H_2.ipv4.igmp startupQueryInterval 31.25s
attr unit s
par Red.H_2.ipv4.igmp startupQueryCount 2
par Red.H_2.ipv4.igmp lastMemberQueryInterval 1s
attr unit s
par Red.H_2.ipv4.igmp lastMemberQueryCount 2
par Red.H_2.ipv4.igmp unsolicitedReportInterval 10s
attr unit s
par Red.H_2.ipv4.icmp typename "\"inet.networklayer.ipv4.Icmp\""
par Red.H_2.ipv4.icmp interfaceTableModule "\"Red.H_2.interfaceTable\""
par Red.H_2.ipv4.icmp routingTableModule "\"Red.H_2.ipv4.routingTable\""
par Red.H_2.ipv4.icmp crcMode "\"declared\""
attr enum declared,computed
par Red.H_2.ipv4.icmp quoteLength 8B
attr unit B
par Red.H_2.ipv4.mp typename "\"inet.common.MessageDispatcher\""
par Red.H_2.ipv4.mp displayStringTextFormat "\"processed %p pk (%l)\""
par Red.H_2.ipv4.ip typename "\"inet.networklayer.ipv4.Ipv4\""
par Red.H_2.ipv4.ip interfaceTableModule "\"Red.H_2.interfaceTable\""
par Red.H_2.ipv4.ip routingTableModule "\"Red.H_2.ipv4.routingTable\""
par Red.H_2.ipv4.ip arpModule "\"Red.H_2.ipv4.arp\""
par Red.H_2.ipv4.ip icmpModule "\"Red.H_2.ipv4.icmp\""
par Red.H_2.ipv4.ip crcMode "\"declared\""
attr enum declared,computed
par Red.H_2.ipv4.ip timeToLive 32
par Red.H_2.ipv4.ip multicastTimeToLive 32
par Red.H_2.ipv4.ip fragmentTimeout 60s
attr unit s
par Red.H_2.ipv4.ip limitedBroadcast false
par Red.H_2.ipv4.ip directBroadcastInterfaces "\"\""
scalar Red.H_2.ipv4.ip packetDropAddressResolutionFailed:count 0
attr interpolationmode none
attr source packetDropReasonIsAddressResolutionFailed(packetDropped)
attr title "packet drop: address resolution failed, count"
scalar Red.H_2.ipv4.ip packetDropAddressResolutionFailed:sum(packetBytes) 0
attr interpolationmode none
attr source packetDropReasonIsAddressResolutionFailed(packetDropped)
attr title "packet drop: address resolution failed, sum(packetBytes)"
scalar Red.H_2.ipv4.ip packetDropHopLimitReached:count 0
attr interpolationmode none
attr source packetDropReasonIsHopLimitReached(packetDropped)
attr title "packet drop: hop limit reached, count"
scalar Red.H_2.ipv4.ip packetDropHopLimitReached:sum(packetBytes) 0
attr interpolationmode none
attr source packetDropReasonIsHopLimitReached(packetDropped)
attr title "packet drop: hop limit reached, sum(packetBytes)"
scalar Red.H_2.ipv4.ip packetDropForwardingDisabled:count 0
attr interpolationmode none
attr source packetDropReasonIsForwardingDisabled(packetDropped)
attr title "packet drop: forwarding disabled, count"
scalar Red.H_2.ipv4.ip packetDropForwardingDisabled:sum(packetBytes) 0
attr interpolationmode none
attr source packetDropReasonIsForwardingDisabled(packetDropped)
attr title "packet drop: forwarding disabled, sum(packetBytes)"
scalar Red.H_2.ipv4.ip packetDropNoInterfaceFound:count 0
attr interpolationmode none
attr source packetDropReasonIsNoInterfaceFound(packetDropped)
attr title "packet drop: no interface found, count"
scalar Red.H_2.ipv4.ip packetDropNoInterfaceFound:sum(packetBytes) 0
attr interpolationmode none
attr source packetDropReasonIsNoInterfaceFound(packetDropped)
attr title "packet drop: no interface found, sum(packetBytes)"
scalar Red.H_2.ipv4.ip packetDropNoRouteFound:count 0
attr interpolationmode none
attr source packetDropReasonIsNoRouteFound(packetDropped)
attr title "packet drop: no route found, count"
scalar Red.H_2.ipv4.ip packetDropNoRouteFound:sum(packetBytes) 0
attr interpolationmode none
attr source packetDropReasonIsNoRouteFound(packetDropped)
attr title "packet drop: no route found, sum(packetBytes)"
scalar Red.H_2.ipv4.ip packetDropUndefined:count 0
attr interpolationmode none
attr source packetDropReasonIsUndefined(packetDropped)
attr title "packet drop: undefined, count"
scalar Red.H_2.ipv4.ip packetDropUndefined:sum(packetBytes) 0
attr interpolationmode none
attr source packetDropReasonIsUndefined(packetDropped)
attr title "packet drop: undefined, sum(packetBytes)"
par Red.H_2.ipv4.arp typename "\"inet.networklayer.arp.ipv4.Arp\""
par Red.H_2.ipv4.arp interfaceTableModule "\"Red.H_2.interfaceTable\""
par Red.H_2.ipv4.arp routingTableModule "\"Red.H_2.ipv4.routingTable\""
par Red.H_2.ipv4.arp retryTimeout 1s
attr unit s
par Red.H_2.ipv4.arp retryCount 3
par Red.H_2.ipv4.arp cacheTimeout 120s
attr unit s
par Red.H_2.ipv4.arp proxyArpInterfaces "\"*\""
scalar Red.H_2.ipv4.arp arpResolutionFailed:count 0
attr title "ARP failed resolutions, count"
scalar Red.H_2.ipv4.arp arpResolutionCompleted:count 1
attr title "ARP completed resolutions, count"
scalar Red.H_2.ipv4.arp arpResolutionInitiated:count 1
attr title "ARP initiated resolutions, count"
scalar Red.H_2.ipv4.arp arpReplySent:count 0
attr source arpReplySent
attr title "ARP replies sent, count"
scalar Red.H_2.ipv4.arp arpReplySent:sum(packetBytes) 0
attr source arpReplySent
attr title "ARP replies sent, sum(packetBytes)"
scalar Red.H_2.ipv4.arp arpRequestSent:count 1
attr source arpRequestSent
attr title "ARP request sent, count"
scalar Red.H_2.ipv4.arp arpRequestSent:sum(packetBytes) 28
attr source arpRequestSent
attr title "ARP request sent, sum(packetBytes)"
par Red.H_2.ipv4.lp typename "\"inet.common.MessageDispatcher\""
par Red.H_2.ipv4.lp displayStringTextFormat "\"processed %p pk (%l)\""
par Red.H_2.ipv4 typename "\"inet.networklayer.ipv4.Ipv4NetworkLayer\""
par Red.H_2.ipv4 isRdma true
par Red.H_2.ipv4 forwarding false
par Red.H_2.ipv4 multicastForwarding false
par Red.H_2.ipv4 interfaceTableModule "\"Red.H_2.interfaceTable\""
par Red.H_2.ipv4 displayStringTextFormat "\"%i\""
par Red.H_2.nl typename "\"inet.common.MessageDispatcher\""
par Red.H_2.nl displayStringTextFormat "\"processed %p pk (%l)\""
par Red.H_2.rdma typename "\"inet.transportlayer.rdma.Rdma\""
par Red.H_2.rdma interfaceTableModule "\"Red.H_2.interfaceTable\""
par Red.H_2.rdma crcMode "\"declared\""
attr enum disabled,declared,computed
scalar Red.H_2.rdma packetReceived:count 0
attr interpolationmode none
attr source packetReceived
attr title "packets received, count"
scalar Red.H_2.rdma packetReceived:sum(packetBytes) 0
attr interpolationmode none
attr source packetReceived
attr title "packets received, sum(packetBytes)"
scalar Red.H_2.rdma packetSent:count 0
attr interpolationmode none
attr source packetSent
attr title "packets sent, count"
scalar Red.H_2.rdma packetSent:sum(packetBytes) 0
attr interpolationmode none
attr source packetSent
attr title "packets sent, sum(packetBytes)"
scalar Red.H_2.rdma passedUpPk:count 0
attr interpolationmode none
attr source packetSentToUpper
attr title "packets passed up, count"
scalar Red.H_2.rdma droppedPkWrongPort:count 0
attr interpolationmode none
attr source packetDropReasonIsNoPortFound(packetDropped)
attr title "packets dropped (wrong port), count"
scalar Red.H_2.rdma droppedPkBadChecksum:count 0
attr interpolationmode none
attr source packetDropReasonIsIncorrectlyReceived(packetDropped)
attr title "packets dropped (checksum error), count"
par Red.H_2.tn typename "\"inet.common.MessageDispatcher\""
par Red.H_2.tn displayStringTextFormat "\"processed %p pk (%l)\""
par Red.H_2.app[0] typename "\"inet.applications.rdmaapp.RdmaBasicApp\""
par Red.H_2.app[0] interfaceTableModule "\"Red.H_2.interfaceTable\""
par Red.H_2.app[0] clockModule "\"\""
par Red.H_2.app[0] localPort 1000
par Red.H_2.app[0] destAddresses "\"H_1\""
par Red.H_2.app[0] excludeLocalDestAddresses true
par Red.H_2.app[0] localAddress "\"\""
par Red.H_2.app[0] packetName "\"RdmaBasicAppData\""
par Red.H_2.app[0] destPort 1000
par Red.H_2.app[0] messageLength 65536B
attr unit B
par Red.H_2.app[0] startTime 32s
attr unit s
par Red.H_2.app[0] stopTime -1s
attr unit s
par Red.H_2.app[0] sendInterval 0.01s
attr unit s
par Red.H_2.app[0] dontFragment false
par Red.H_2.app[0] stopOperationExtraTime -1s
attr unit s
par Red.H_2.app[0] stopOperationTimeout 2s
attr unit s
scalar Red.H_2.app[0] "packets sent" 201
scalar Red.H_2.app[0] "packets received" 0
scalar Red.H_2.app[0] latency 0
scalar Red.H_2.app[0] meanLatency -nan
statistic Red.H_2.app[0] statsLatency
field count 0
field mean -nan
field stddev -nan
field min -nan
field max -nan
field sum 0
field sqrsum 0
scalar Red.H_2.app[0] latency:count 0
attr interpolationmode none
attr source latency
attr title "latency, count"
attr unit s
scalar Red.H_2.app[0] packetReceived:count 0
attr interpolationmode none
attr source packetReceived
attr title "packets received, count"
scalar Red.H_2.app[0] packetReceived:sum(packetBytes) 0
attr interpolationmode none
attr source packetReceived
attr title "packets received, sum(packetBytes)"
statistic Red.H_2.app[0] rcvdPkLifetime:stats
field count 0
field mean -nan
field stddev -nan
field min -nan
field max -nan
field sum 0
field sqrsum 0
attr interpolationmode none
attr source dataAge(packetReceived)
attr title "received packet lifetime, stats"
attr unit s
scalar Red.H_2.app[0] packetSent:count 201
attr interpolationmode none
attr source packetSent
attr title "packets sent, count"
scalar Red.H_2.app[0] packetSent:sum(packetBytes) 13172736
attr interpolationmode none
attr source packetSent
attr title "packets sent, sum(packetBytes)"
par Red.H_2.at typename "\"inet.common.MessageDispatcher\""
par Red.H_2.at displayStringTextFormat "\"processed %p pk (%l)\""
par Red.H_2 typename "\"inet.node.rdma.RdmaHost\""
par Red.H_2 hasStatus false
par Red.H_2 osgModel "\"\""
par Red.H_2 osgModelColor "\"\""
par Red.H_2 canvasImage "\"\""
par Red.H_2 canvasImageColor "\"\""
par Red.H_2 recordPcap false
par Red.H_2 numPcapRecorders 0
par Red.H_2 numLoInterfaces 1
par Red.H_2 numWlanInterfaces 0
par Red.H_2 numEthInterfaces 0
par Red.H_2 numPppInterfaces 0
par Red.H_2 numTunInterfaces 0
par Red.H_2 numVirtInterfaces 0
par Red.H_2 hasIpv4 true
par Red.H_2 hasIpv6 false
par Red.H_2 hasGn false
par Red.H_2 forwarding false
par Red.H_2 multicastForwarding false
par Red.H_2 hasRdma true
par Red.H_2 numApps 1
par Red.H_3.ethg$i[0].channel typename "\"ned.IdealChannel\""
par Red.H_3.eth[0].phys$o.channel typename "\"ned.IdealChannel\""
par Red.H_3.interfaceTable typename "\"inet.networklayer.common.InterfaceTable\""
par Red.H_3.interfaceTable displayAddresses false
par Red.H_3.li typename "\"inet.common.MessageDispatcher\""
par Red.H_3.li displayStringTextFormat "\"processed %p pk (%l)\""
par Red.H_3.lo[0].upperLayerIn.channel typename "\"ned.IdealChannel\""
par Red.H_3.lo[0].lo.upperLayerOut.channel typename "\"ned.IdealChannel\""
par Red.H_3.lo[0].lo.appLayerOut.channel typename "\"ned.IdealChannel\""
par Red.H_3.lo[0].lo typename "\"inet.linklayer.contract.rdma.Loopback\""
par Red.H_3.lo[0].lo interfaceTableModule "\"Red.H_3.interfaceTable\""
par Red.H_3.lo[0].lo mtu 4470B
attr unit B
scalar Red.H_3.lo[0].lo rcvdPkFromHl:count 0
attr interpolationmode none
attr source packetReceivedFromUpper
attr title "packets received from higher layer, count"
scalar Red.H_3.lo[0].lo rcvdPkFromHl:sum(packetBytes) 0
attr interpolationmode none
attr source packetReceivedFromUpper
attr title "packets received from higher layer, sum(packetBytes)"
scalar Red.H_3.lo[0].lo passedUpPk:count 0
attr interpolationmode none
attr source packetSentToUpper
attr title "packets passed to higher layer, count"
scalar Red.H_3.lo[0].lo passedUpPk:sum(packetBytes) 0
attr interpolationmode none
attr source packetSentToUpper
attr title "packets passed to higher layer, sum(packetBytes)"
par Red.H_3.lo[0] typename "\"inet.linklayer.contract.rdma.LoopbackInterface\""
par Red.H_3.lo[0] displayStringTextFormat "\"%a (%i)\\n%m\""
par Red.H_3.lo[0] recordPcap false
par Red.H_3.lo[0] numPcapRecorders 0
par Red.H_3.lo[0] interfaceTableModule "\"Red.H_3.interfaceTable\""
par Red.H_3.eth[0].mac.phys$o.channel typename "\"ned.IdealChannel\""
par Red.H_3.eth[0].phys$i.channel typename "\"ned.IdealChannel\""
par Red.H_3.eth[0].encap.appLayerOut.channel typename "\"ned.IdealChannel\""
par Red.H_3.eth[0].encap.upperLayerOut.channel typename "\"ned.IdealChannel\""
par Red.H_3.eth[0].upperLayerIn.channel typename "\"ned.IdealChannel\""
par Red.H_3.eth[0].encap typename "\"inet.linklayer.contract.rdma.EthernetEncapsulation\""
par Red.H_3.eth[0].encap interfaceTableModule "\"Red.H_3.interfaceTable\""
par Red.H_3.eth[0].encap useSNAP false
par Red.H_3.eth[0].encap fcsMode "\"declared\""
attr enum declared,computed
par Red.H_3.eth[0].encap registerProtocol false
par Red.H_3.eth[0].encap stopOperationExtraTime -1s
attr unit s
par Red.H_3.eth[0].encap stopOperationTimeout 2s
attr unit s
par Red.H_3.eth[0].encap isRdma true
scalar Red.H_3.eth[0].encap pauseSent:count 0
attr title "pause sent, count"
scalar Red.H_3.eth[0].encap pauseSent:sum 0
attr title "pause sent, sum"
scalar Red.H_3.eth[0].encap decapPk:count 3
attr interpolationmode none
attr source decapPk
attr title "packets decapsulated, count"
scalar Red.H_3.eth[0].encap decapPk:sum(packetBytes) 138
attr interpolationmode none
attr source decapPk
attr title "packets decapsulated, sum(packetBytes)"
scalar Red.H_3.eth[0].encap encapPk:count 9850
attr interpolationmode none
attr source encapPk
attr title "packets encapsulated, count"
scalar Red.H_3.eth[0].encap encapPk:sum(packetBytes) 13422808
attr interpolationmode none
attr source encapPk
attr title "packets encapsulated, sum(packetBytes)"
par Red.H_3.eth[0].mac.queue typename "\"inet.linklayer.ethernet.common.EthernetQueue\""
par Red.H_3.eth[0].mac.queue displayStringTextFormat "\"contains %p pk (%l) pushed %u\\npulled %o removed %r dropped %d\""
par Red.H_3.eth[0].mac.queue packetCapacity 10000
par Red.H_3.eth[0].mac.queue dataCapacity -1b
attr unit b
par Red.H_3.eth[0].mac.queue dropperClass "\"inet::queueing::PacketAtCollectionEndDropper\""
par Red.H_3.eth[0].mac.queue comparatorClass "\"inet::EthernetFrameTypeComparator\""
par Red.H_3.eth[0].mac.queue bufferModule "\"\""
scalar Red.H_3.eth[0].mac.queue packetPulled:count 9802
attr interpolationmode none
attr title "packet pulled, count"
scalar Red.H_3.eth[0].mac.queue packetPulled:sum(packetBytes) 13533964
attr interpolationmode none
attr title "packet pulled, sum(packetBytes)"
statistic Red.H_3.eth[0].mac.queue queueingTime:histogram
field count 9802
field mean 6.8653417669864e-06
field stddev 4.0346241003553e-06
field min 0
field max 1.36896e-05
field sum 0.067294080000001
field sqrsum 6.21539414272e-07
attr interpolationmode none
attr source queueingTime(packetPulled)
attr title "queueing times, histogram"
attr unit s
bin	-inf	0
bin	0	202
bin	2e-07	200
bin	4e-07	0
bin	6e-07	200
bin	8e-07	200
bin	1e-06	200
bin	1.2e-06	0
bin	1.4e-06	200
bin	1.6e-06	200
bin	1.8e-06	0
bin	2e-06	200
bin	2.2e-06	200
bin	2.4e-06	200
bin	2.6e-06	0
[...]
attr autoWarmupFilter false
attr interpolationmode sample-hold
attr source "warmup(count(packetPushed) - count(packetPulled) - count(packetRemoved) - count(packetDropped))"
attr title "queue length, timeavg"
attr type int
scalar Red.SW_2_1.eth[1].mac.queue packetPushed:count 38
attr interpolationmode none
attr title "packet pushed, count"
scalar Red.SW_2_1.eth[1].mac.queue packetPushed:sum(packetBytes) 2152
attr interpolationmode none
attr title "packet pushed, sum(packetBytes)"
scalar Red.SW_2_1.eth[1].mac.queue packetDropQueueOverflow:count 0
attr interpolationmode none
attr source packetDropReasonIsQueueOverflow(packetDropped)
attr title "packet drops: queue overflow, count"
scalar Red.SW_2_1.eth[1].mac.queue packetDropQueueOverflow:sum(packetBytes) 0
attr interpolationmode none
attr source packetDropReasonIsQueueOverflow(packetDropped)
attr title "packet drops: queue overflow, sum(packetBytes)"
scalar Red.SW_2_1.eth[1].mac.queue packetRemoved:count 0
attr interpolationmode none
attr title "packets removed, count"
scalar Red.SW_2_1.eth[1].mac.queue packetRemoved:sum(packetBytes) 0
attr interpolationmode none
attr title "packets removed, sum(packetBytes)"
par Red.SW_2_1.eth[1].mac typename "\"inet.linklayer.ethernet.basic.EthernetMac\""
par Red.SW_2_1.eth[1].mac interfaceTableModule "\"Red.SW_2_1.interfaceTable\""
par Red.SW_2_1.eth[1].mac displayStringTextFormat "\"rate: %b\\nsent: %s, rcvd: %r\\nqueue: %q, drop: %d\""
par Red.SW_2_1.eth[1].mac sendRawBytes false
par Red.SW_2_1.eth[1].mac promiscuous true
par Red.SW_2_1.eth[1].mac duplexMode true
par Red.SW_2_1.eth[1].mac mtu 1500B
attr unit B
par Red.SW_2_1.eth[1].mac stopOperationExtraTime -1s
attr unit s
par Red.SW_2_1.eth[1].mac stopOperationTimeout 2s
attr unit s
scalar Red.SW_2_1.eth[1].mac "simulated time" 34
scalar Red.SW_2_1.eth[1].mac full-duplex 1
scalar Red.SW_2_1.eth[1].mac "frames/sec sent" 1.1176470588235
scalar Red.SW_2_1.eth[1].mac "frames/sec rcvd" 288.26470588235
scalar Red.SW_2_1.eth[1].mac "bits/sec sent" 572.23529411765
scalar Red.SW_2_1.eth[1].mac "bits/sec rcvd" 3184109.1764706
scalar Red.SW_2_1.eth[1].mac "rx channel idle (%)" 99.991993604706
scalar Red.SW_2_1.eth[1].mac "rx channel utilization (%)" 0.0080063952941176
scalar Red.SW_2_1.eth[1].mac rxPausePkUnits:count 0
attr interpolationmode none
attr title "pause units received, count"
scalar Red.SW_2_1.eth[1].mac rxPausePkUnits:sum 0
attr interpolationmode none
attr title "pause units received, sum"
scalar Red.SW_2_1.eth[1].mac txPausePkUnits:count 0
attr interpolationmode none
attr title "pause units sent, count"
scalar Red.SW_2_1.eth[1].mac txPausePkUnits:sum 0
attr interpolationmode none
attr title "pause units sent, sum"
scalar Red.SW_2_1.eth[1].mac rxPkOk:count 9801
attr interpolationmode none
attr source rxPkOk
attr title "packets received OK, count"
scalar Red.SW_2_1.eth[1].mac rxPkOk:sum(packetBytes) 13532464
attr interpolationmode none
attr source rxPkOk
attr title "packets received OK, sum(packetBytes)"
scalar Red.SW_2_1.eth[1].mac txPk:count 38
attr interpolationmode none
attr source packetSentToLower
attr title "packets transmitted, count"
scalar Red.SW_2_1.eth[1].mac txPk:sum(packetBytes) 2432
attr interpolationmode none
attr source packetSentToLower
attr title "packets transmitted, sum(packetBytes)"
scalar Red.SW_2_1.eth[1].mac packetReceivedFromUpper:count 38
attr interpolationmode none
attr source packetReceivedFromUpper
attr title "packet bytes from higher layer, count"
scalar Red.SW_2_1.eth[1].mac packetReceivedFromUpper:sum(packetBytes) 2152
attr interpolationmode none
attr source packetReceivedFromUpper
attr title "packet bytes from higher layer, sum(packetBytes)"
scalar Red.SW_2_1.eth[1].mac passedUpPk:count 9801
attr interpolationmode none
attr source packetSentToUpper
attr title "packets passed to higher layer, count"
scalar Red.SW_2_1.eth[1].mac passedUpPk:sum(packetBytes) 13532464
attr interpolationmode none
attr source packetSentToUpper
attr title "packets passed to higher layer, sum(packetBytes)"
scalar Red.SW_2_1.eth[1].mac packetDropIncorrectlyReceived:count 0
attr interpolationmode none
attr source packetDropReasonIsIncorrectlyReceived(packetDropped)
attr title "packet drop: incorrectly received, count"
scalar Red.SW_2_1.eth[1].mac packetDropIncorrectlyReceived:sum(packetBytes) 0
attr interpolationmode none
attr source packetDropReasonIsIncorrectlyReceived(packetDropped)
attr title "packet drop: incorrectly received, sum(packetBytes)"
scalar Red.SW_2_1.eth[1].mac packetDropInterfaceDown:count 0
attr interpolationmode none
attr source packetDropReasonIsInterfaceDown(packetDropped)
attr title "packet drop: interface down, count"
scalar Red.SW_2_1.eth[1].mac packetDropInterfaceDown:sum(packetBytes) 0
attr interpolationmode none
attr source packetDropReasonIsInterfaceDown(packetDropped)
attr title "packet drop: interface down, sum(packetBytes)"
scalar Red.SW_2_1.eth[1].mac packetDropNotAddressedToUs:count 0
attr interpolationmode none
attr source packetDropReasonIsNotAddressedToUs(packetDropped)
attr title "packet drop: not addressed to us, count"
scalar Red.SW_2_1.eth[1].mac packetDropNotAddressedToUs:sum(packetBytes) 0
attr interpolationmode none
attr source packetDropReasonIsNotAddressedToUs(packetDropped)
attr title "packet drop: not addressed to us, sum(packetBytes)"
par Red.SW_2_1.eth[1] typename "\"inet.linklayer.ethernet.EthernetInterface\""
par Red.SW_2_1.eth[1] displayStringTextFormat "\"%a (%i)\\n%m\""
par Red.SW_2_1.eth[1] recordPcap false
par Red.SW_2_1.eth[1] numPcapRecorders 0
par Red.SW_2_1.eth[1] interfaceTableModule "\"Red.SW_2_1.interfaceTable\""
par Red.SW_2_1.eth[1] address "\"0A-AA-00-00-00-09\""
par Red.SW_2_1.eth[1] duplexMode true
par Red.SW_2_1.eth[1] csmacdSupport false
par Red.SW_2_1.eth[1] bitrate 0bps
attr unit bps
par Red.SW_2_1.eth[1] fcsMode "\"declared\""
attr enum declared,computed
par Red.SW_2_1.eth[2].mac.phys$o.channel typename "\"ned.IdealChannel\""
par Red.SW_2_1.eth[2].phys$i.channel typename "\"ned.IdealChannel\""
par Red.SW_2_1.eth[2].mac.queue typename "\"inet.linklayer.ethernet.common.EthernetQueue\""
par Red.SW_2_1.eth[2].mac.queue displayStringTextFormat "\"contains %p pk (%l) pushed %u\\npulled %o removed %r dropped %d\""
par Red.SW_2_1.eth[2].mac.queue packetCapacity 10000
par Red.SW_2_1.eth[2].mac.queue dataCapacity -1b
attr unit b
par Red.SW_2_1.eth[2].mac.queue dropperClass "\"inet::queueing::PacketAtCollectionEndDropper\""
par Red.SW_2_1.eth[2].mac.queue comparatorClass "\"inet::EthernetFrameTypeComparator\""
par Red.SW_2_1.eth[2].mac.queue bufferModule "\"\""
scalar Red.SW_2_1.eth[2].mac.queue packetPulled:count 19604
attr interpolationmode none
attr title "packet pulled, count"
scalar Red.SW_2_1.eth[2].mac.queue packetPulled:sum(packetBytes) 27065009
attr interpolationmode none
attr title "packet pulled, sum(packetBytes)"
statistic Red.SW_2_1.eth[2].mac.queue queueingTime:histogram
field count 19604
field mean 7.0327807386247e-06
field stddev 4.042225237512e-06
field min 0
field max 1.39972e-05
field sum 0.1378706336
field sqrsum 1.2899188186259e-06
attr interpolationmode none
attr source queueingTime(packetPulled)
attr title "queueing times, histogram"
attr unit s
bin	-inf	0
bin	0	204
bin	2e-07	400
bin	4e-07	1
bin	6e-07	399
bin	8e-07	400
bin	1e-06	400
bin	1.2e-06	0
bin	1.4e-06	400
bin	1.6e-06	400
bin	1.8e-06	0
bin	2e-06	400
bin	2.2e-06	400
bin	2.4e-06	200
bin	2.6e-06	200
bin	2.8e-06	400
bin	3e-06	200
bin	3.2e-06	200
bin	3.4e-06	400
bin	3.6e-06	400
bin	3.8e-06	0
bin	4e-06	400
bin	4.2e-06	400
bin	4.4e-06	400
bin	4.6e-06	0
bin	4.8e-06	400
bin	5e-06	201
bin	5.2e-06	199
bin	5.4e-06	400
bin	5.6e-06	200
bin	5.8e-06	400
bin	6e-06	200
bin	6.2e-06	400
bin	6.4e-06	1
bin	6.6e-06	399
bin	6.8e-06	400
bin	7e-06	400
bin	7.2e-06	0
bin	7.4e-06	400
bin	7.6e-06	400
bin	7.8e-06	1
bin	8e-06	399
bin	8.2e-06	400
bin	8.4e-06	200
bin	8.6e-06	200
bin	8.8e-06	400
bin	9e-06	200
bin	9.2e-06	200
bin	9.4e-06	400
bin	9.6e-06	400
bin	9.8e-06	0
bin	1e-05	400
bin	1.02e-05	400
bin	1.04e-05	400
bin	1.06e-05	0
bin	1.08e-05	400
bin	1.1e-05	400
bin	1.12e-05	0
bin	1.14e-05	400
bin	1.16e-05	200
bin	1.18e-05	400
bin	1.2e-05	200
bin	1.22e-05	400
bin	1.24e-05	200
bin	1.26e-05	200
bin	1.28e-05	400
bin	1.3e-05	400
bin	1.32e-05	0
bin	1.34e-05	400
bin	1.36e-05	200
bin	1.38e-05	400
bin	1.4e-05	0
bin	1.42e-05	0
bin	1.44e-05	0
bin	1.46e-05	0
bin	1.48e-05	0
bin	1.5e-05	0
bin	1.52e-05	0
bin	1.54e-05	0
bin	1.56e-05	0
bin	1.58e-05	0
bin	1.6e-05	0
bin	1.62e-05	0
bin	1.64e-05	0
bin	1.66e-05	0
bin	1.68e-05	0
bin	1.7e-05	0
bin	1.72e-05	0
bin	1.74e-05	0
bin	1.76e-05	0
scalar Red.SW_2_1.eth[2].mac.queue queueLength:max 51
attr autoWarmupFilter false
attr interpolationmode sample-hold
attr source "warmup(count(packetPushed) - count(packetPulled) - count(packetRemoved) - count(packetDropped))"
attr title "queue length, max"
attr type int
scalar Red.SW_2_1.eth[2].mac.queue queueLength:timeavg 0.0041778979878787
attr autoWarmupFilter false
attr interpolationmode sample-hold
attr source "warmup(count(packetPushed) - count(packetPulled) - count(packetRemoved) - count(packetDropped))"
attr title "queue length, timeavg"
attr type int
scalar Red.SW_2_1.eth[2].mac.queue packetPushed:count 19604
attr interpolationmode none
attr title "packet pushed, count"
scalar Red.SW_2_1.eth[2].mac.queue packetPushed:sum(packetBytes) 27065009
attr interpolationmode none
attr title "packet pushed, sum(packetBytes)"
scalar Red.SW_2_1.eth[2].mac.queue packetDropQueueOverflow:count 0
attr interpolationmode none
attr source packetDropReasonIsQueueOverflow(packetDropped)
attr title "packet drops: queue overflow, count"
scalar Red.SW_2_1.eth[2].mac.queue packetDropQueueOverflow:sum(packetBytes) 0
attr interpolationmode none
attr source packetDropReasonIsQueueOverflow(packetDropped)
attr title "packet drops: queue overflow, sum(packetBytes)"
scalar Red.SW_2_1.eth[2].mac.queue packetRemoved:count 0
attr interpolationmode none
attr title "packets removed, count"
scalar Red.SW_2_1.eth[2].mac.queue packetRemoved:sum(packetBytes) 0
attr interpolationmode none
attr title "packets removed, sum(packetBytes)"
par Red.SW_2_1.eth[2].mac typename "\"inet.linklayer.ethernet.basic.EthernetMac\""
par Red.SW_2_1.eth[2].mac interfaceTableModule "\"Red.SW_2_1.interfaceTable\""
par Red.SW_2_1.eth[2].mac displayStringTextFormat "\"rate: %b\\nsent: %s, rcvd: %r\\nqueue: %q, drop: %d\""
par Red.SW_2_1.eth[2].mac sendRawBytes false
par Red.SW_2_1.eth[2].mac promiscuous true
par Red.SW_2_1.eth[2].mac duplexMode true
par Red.SW_2_1.eth[2].mac mtu 1500B
attr unit B
par Red.SW_2_1.eth[2].mac stopOperationExtraTime -1s
attr unit s
par Red.SW_2_1.eth[2].mac stopOperationTimeout 2s
attr unit s
scalar Red.SW_2_1.eth[2].mac "simulated time" 34
scalar Red.SW_2_1.eth[2].mac full-duplex 1
scalar Red.SW_2_1.eth[2].mac "frames/sec sent" 576.58823529412
scalar Red.SW_2_1.eth[2].mac "frames/sec rcvd" 1.1176470588235
scalar Red.SW_2_1.eth[2].mac "bits/sec sent" 6368248.4705882
scalar Red.SW_2_1.eth[2].mac "bits/sec rcvd" 572.23529411765
scalar Red.SW_2_1.eth[2].mac "rx channel idle (%)" 99.999998390588
scalar Red.SW_2_1.eth[2].mac "rx channel utilization (%)" 1.6094117647059e-06
scalar Red.SW_2_1.eth[2].mac rxPausePkUnits:count 0
attr interpolationmode none
attr title "pause units received, count"
scalar Red.SW_2_1.eth[2].mac rxPausePkUnits:sum 0
attr interpolationmode none
attr title "pause units received, sum"
scalar Red.SW_2_1.eth[2].mac txPausePkUnits:count 0
attr interpolationmode none
attr title "pause units sent, count"
scalar Red.SW_2_1.eth[2].mac txPausePkUnits:sum 0
attr interpolationmode none
attr title "pause units sent, sum"
scalar Red.SW_2_1.eth[2].mac rxPkOk:count 38
attr interpolationmode none
attr source rxPkOk
attr title "packets received OK, count"
scalar Red.SW_2_1.eth[2].mac rxPkOk:sum(packetBytes) 2432
attr interpolationmode none
attr source rxPkOk
attr title "packets received OK, sum(packetBytes)"
scalar Red.SW_2_1.eth[2].mac txPk:count 19604
attr interpolationmode none
attr source packetSentToLower
attr title "packets transmitted, count"
scalar Red.SW_2_1.eth[2].mac txPk:sum(packetBytes) 27065056
attr interpolationmode none
attr source packetSentToLower
attr title "packets transmitted, sum(packetBytes)"
scalar Red.SW_2_1.eth[2].mac packetReceivedFromUpper:count 19604
attr interpolationmode none
attr source packetReceivedFromUpper
attr title "packet bytes from higher layer, count"
scalar Red.SW_2_1.eth[2].mac packetReceivedFromUpper:sum(packetBytes) 27065009
attr interpolationmode none
attr source packetReceivedFromUpper
attr title "packet bytes from higher layer, sum(packetBytes)"
scalar Red.SW_2_1.eth[2].mac passedUpPk:count 38
attr interpolationmode none
attr source packetSentToUpper
attr title "packets passed to higher layer, count"
scalar Red.SW_2_1.eth[2].mac passedUpPk:sum(packetBytes) 2432
attr interpolationmode none
attr source packetSentToUpper
attr title "packets passed to higher layer, sum(packetBytes)"
scalar Red.SW_2_1.eth[2].mac packetDropIncorrectlyReceived:count 0
attr interpolationmode none
attr source packetDropReasonIsIncorrectlyReceived(packetDropped)
attr title "packet drop: incorrectly received, count"
scalar Red.SW_2_1.eth[2].mac packetDropIncorrectlyReceived:sum(packetBytes) 0
attr interpolationmode none
attr source packetDropReasonIsIncorrectlyReceived(packetDropped)
attr title "packet drop: incorrectly received, sum(packetBytes)"
scalar Red.SW_2_1.eth[2].mac packetDropInterfaceDown:count 0
attr interpolationmode none
attr source packetDropReasonIsInterfaceDown(packetDropped)
attr title "packet drop: interface down, count"
scalar Red.SW_2_1.eth[2].mac packetDropInterfaceDown:sum(packetBytes) 0
attr interpolationmode none
attr source packetDropReasonIsInterfaceDown(packetDropped)
attr title "packet drop: interface down, sum(packetBytes)"
scalar Red.SW_2_1.eth[2].mac packetDropNotAddressedToUs:count 0
attr interpolationmode none
attr source packetDropReasonIsNotAddressedToUs(packetDropped)
attr title "packet drop: not addressed to us, count"
scalar Red.SW_2_1.eth[2].mac packetDropNotAddressedToUs:sum(packetBytes) 0
attr interpolationmode none
attr source packetDropReasonIsNotAddressedToUs(packetDropped)
attr title "packet drop: not addressed to us, sum(packetBytes)"
par Red.SW_2_1.eth[2] typename "\"inet.linklayer.ethernet.EthernetInterface\""
par Red.SW_2_1.eth[2] displayStringTextFormat "\"%a (%i)\\n%m\""
par Red.SW_2_1.eth[2] recordPcap false
par Red.SW_2_1.eth[2] numPcapRecorders 0
par Red.SW_2_1.eth[2] interfaceTableModule "\"Red.SW_2_1.interfaceTable\""
par Red.SW_2_1.eth[2] address "\"0A-AA-00-00-00-0A\""
par Red.SW_2_1.eth[2] duplexMode true
par Red.SW_2_1.eth[2] csmacdSupport false
par Red.SW_2_1.eth[2] bitrate 0bps
attr unit bps
par Red.SW_2_1.eth[2] fcsMode "\"declared\""
attr enum declared,computed
par Red.SW_2_1.encap typename "\"inet.linklayer.ethernet.basic.EthernetEncapsulation\""
par Red.SW_2_1.encap interfaceTableModule "\"Red.SW_2_1.interfaceTable\""
par Red.SW_2_1.encap useSNAP false
par Red.SW_2_1.encap fcsMode "\"declared\""
attr enum declared,computed
par Red.SW_2_1.encap registerProtocol true
par Red.SW_2_1.encap stopOperationExtraTime -1s
attr unit s
par Red.SW_2_1.encap stopOperationTimeout 2s
attr unit s
par Red.SW_2_1.encap isRdma false
scalar Red.SW_2_1.encap pauseSent:count 0
attr title "pause sent, count"
scalar Red.SW_2_1.encap pauseSent:sum 0
attr title "pause sent, sum"
scalar Red.SW_2_1.encap decapPk:count 0
attr interpolationmode none
attr source decapPk
attr title "packets decapsulated, count"
scalar Red.SW_2_1.encap decapPk:sum(packetBytes) 0
attr interpolationmode none
attr source decapPk
attr title "packets decapsulated, sum(packetBytes)"
scalar Red.SW_2_1.encap encapPk:count 72
attr interpolationmode none
attr source encapPk
attr title "packets encapsulated, count"
scalar Red.SW_2_1.encap encapPk:sum(packetBytes) 2489
attr interpolationmode none
attr source encapPk
attr title "packets encapsulated, sum(packetBytes)"
par Red.SW_2_1.rl typename "\"inet.common.MessageDispatcher\""
par Red.SW_2_1.rl displayStringTextFormat "\"processed %p pk (%l)\""
par Red.SW_2_1.ieee8021q.qTagHeaderInserter.out.channel typename "\"ned.IdealChannel\""
par Red.SW_2_1.ieee8021q.lowerLayerIn.channel typename "\"ned.IdealChannel\""
par Red.SW_2_1.ieee8021q.qTagHeaderInserter typename "\"inet.linklayer.ieee8021q.Ieee8021qTagEpdHeaderInserter\""
par Red.SW_2_1.ieee8021q.qTagHeaderInserter displayStringTextFormat "\"processed %p pk (%l)\""
par Red.SW_2_1.ieee8021q.qTagHeaderInserter vlanTagType "\"c\""
attr enum c,s
par Red.SW_2_1.ieee8021q.qTagHeaderInserter nextProtocol "\"ethernetmac\""
par Red.SW_2_1.ieee8021q.qTagHeaderInserter defaultVlanId -1
par Red.SW_2_1.ieee8021q.qTagHeaderInserter defaultUserPriority -1
scalar Red.SW_2_1.ieee8021q.qTagHeaderInserter packetPulled:count 0
attr interpolationmode none
attr title "packets pulled, count"
scalar Red.SW_2_1.ieee8021q.qTagHeaderInserter packetPulled:sum(packetBytes) 0
attr interpolationmode none
attr title "packets pulled, sum(packetBytes)"
scalar Red.SW_2_1.ieee8021q.qTagHeaderInserter packetPushed:count 0
attr interpolationmode none
attr title "packets pushed, count"
scalar Red.SW_2_1.ieee8021q.qTagHeaderInserter packetPushed:sum(packetBytes) 0
attr interpolationmode none
attr title "packets pushed, sum(packetBytes)"
par Red.SW_2_1.ieee8021q.qTagHeaderChecker typename "\"inet.linklayer.ieee8021q.Ieee8021qTagEpdHeaderChecker\""
par Red.SW_2_1.ieee8021q.qTagHeaderChecker displayStringTextFormat "\"dropped %d/%p pk (%k/%l)\""
par Red.SW_2_1.ieee8021q.qTagHeaderChecker vlanTagType "\"c\""
attr enum c,s
par Red.SW_2_1.ieee8021q.qTagHeaderChecker vlanIdFilter "\"\""
scalar Red.SW_2_1.ieee8021q.qTagHeaderChecker packetPulled:count 0
attr interpolationmode none
attr title "packets pulled, count"
scalar Red.SW_2_1.ieee8021q.qTagHeaderChecker packetPulled:sum(packetBytes) 0
attr interpolationmode none
attr title "packets pulled, sum(packetBytes)"
scalar Red.SW_2_1.ieee8021q.qTagHeaderChecker packetPushed:count 0
attr interpolationmode none
attr title "packets pushed, count"
scalar Red.SW_2_1.ieee8021q.qTagHeaderChecker packetPushed:sum(packetBytes) 0
attr interpolationmode none
attr title "packets pushed, sum(packetBytes)"
scalar Red.SW_2_1.ieee8021q.qTagHeaderChecker packetDropped:count 0
attr interpolationmode none
attr title "packets dropped, count"
scalar Red.SW_2_1.ieee8021q.qTagHeaderChecker packetDropped:sum(packetBytes) 0
attr interpolationmode none
attr title "packets dropped, sum(packetBytes)"
par Red.SW_2_1.ieee8021q typename "\"inet.linklayer.ieee8021q.Ieee8021qLayer\""
par Red.SW_2_1.ieee8021q vlanTagType "\"c\""
par Red.SW_2_1.ieee8021q hasSocketSupport false
par Red.SW_2_1 typename "\"inet.node.ethernet.EthernetSwitch\""
par Red.SW_2_1 numPcapRecorders 0
par Red.SW_2_1 hasStatus false
par Red.SW_2_1 hasStp true
par Red.SW_2_1 enableCutthrough false
par Red.SW_2_1 fcsMode "\"declared\""
attr enum declared,computed
par Red.SW_2_1 spanningTreeProtocol "\"Stp\""
par Red.SW_2_1 numEthInterfaces 0
par Red.configurator typename "\"inet.networklayer.configurator.ipv4.Ipv4NetworkConfigurator\""
par Red.configurator minLinkWeight 0.001
par Red.configurator configureIsolatedNetworksSeparatly false
par Red.configurator config "<config>...</config> at content:1"
par Red.configurator assignAddresses true
par Red.configurator assignUniqueAddresses true
par Red.configurator assignDisjunctSubnetAddresses true
par Red.configurator addStaticRoutes true
par Red.configurator addDefaultRoutes true
par Red.configurator addSubnetRoutes true
par Red.configurator addDirectRoutes true
par Red.configurator optimizeRoutes true
par Red.configurator dumpTopology false
par Red.configurator dumpLinks false
par Red.configurator dumpAddresses false
par Red.configurator dumpRoutes false
par Red.configurator dumpConfig "\"\""
par Red typename "\"pruebainicialrdma.simulations.Red\""

