version 3
run RequestResponseTraffic-0-20210929-13:23:37-15264
attr configname RequestResponseTraffic
attr datetime 20210929-13:23:37
attr datetimef 20210929-132337
attr experiment RequestResponseTraffic
attr inifile Red4Tcp.ini
attr iterationvars ""
attr iterationvarsd ""
attr iterationvarsf ""
attr measurement ""
attr network Red4Tcp
attr processid 15264
attr repetition 0
attr replication #0
attr resultdir results
attr runnumber 0
attr seedset 0
config debug-on-errors true
config image-path ../../inet/images
config *.hA.app[0].listener.serverConnectionModuleType "\"inet.applications.tcpapp.TcpRequestResponseApp\""
config *.hA.app[0].connection[*].sink.tokenGenerator[0].numTokensPerPacket "intuniform(1, 5)"
config *.hA.app[0].connection[*].source.provider[0].providingInterval "uniform(0s, 2s)"
config *.hA.app[0].connection[*].source.provider[0].packetLength "intuniform(100B, 1000B)"
config *.hA.app[0].connection[*].sink.tokenGenerator[1].numTokensPerPacket "intuniform(10, 20)"
config *.hA.app[0].connection[*].source.provider[1].providingInterval "uniform(0s, 0.2s)"
config *.hA.app[0].connection[*].source.provider[1].packetLength "intuniform(1000B, 10000B)"
config *.hB.app[0].listener.serverConnectionModuleType "\"inet.applications.tcpapp.TcpRequestResponseApp\""
config *.hB.app[0].connection[*].sink.tokenGenerator[0].numTokensPerPacket "intuniform(1, 5)"
config *.hB.app[0].connection[*].source.provider[0].providingInterval "uniform(0s, 2s)"
config *.hB.app[0].connection[*].source.provider[0].packetLength "intuniform(100B, 1000B)"
config *.hB.app[0].connection[*].sink.tokenGenerator[1].numTokensPerPacket "intuniform(10, 20)"
config *.hB.app[0].connection[*].source.provider[1].providingInterval "uniform(0s, 0.2s)"
config *.hB.app[0].connection[*].source.provider[1].packetLength "intuniform(1000B, 10000B)"
config *.hD.app[0].listener.serverConnectionModuleType "\"inet.applications.tcpapp.TcpRequestResponseApp\""
config *.hD.app[0].connection[*].sink.tokenGenerator[0].numTokensPerPacket "intuniform(1, 5)"
config *.hD.app[0].connection[*].source.provider[0].providingInterval "uniform(0s, 2s)"
config *.hD.app[0].connection[*].source.provider[0].packetLength "intuniform(100B, 1000B)"
config *.hD.app[0].connection[*].sink.tokenGenerator[1].numTokensPerPacket "intuniform(10, 20)"
config *.hD.app[0].connection[*].source.provider[1].providingInterval "uniform(0s, 0.2s)"
config *.hD.app[0].connection[*].source.provider[1].packetLength "intuniform(1000B, 10000B)"
config network Red4Tcp
config sim-time-limit 2s
config *.hA.numApps 1
config *.hB.numApps 1
config *.hC.numApps 2
config *.hD.numApps 2
config *.hA.app[0].typename TcpServerApp
config *.hA.app[0].listener.localPort 1000
config *.hB.app[0].typename TcpServerApp
config *.hB.app[0].listener.localPort 1000
config *.hD.app[0].typename TcpServerApp
config *.hD.app[0].listener.localPort 1000
config *.hC.app[0].typename TcpClientApp
config *.hC.app[0].io.connectAddress "\"hB\""
config *.hC.app[0].io.connectPort 1000
config *.hC.app[0].source.productionInterval 0.001s+uniform(-0.0001s,0.0001s)
config *.hC.app[0].source.packetLength "intuniform(100B, 200B)"
config *.hC.app[0].source.packetData "intuniform(0, 1)"
config *.hC.app[1].typename TcpClientApp
config *.hC.app[1].io.connectAddress "\"hD\""
config *.hC.app[1].io.connectPort 1000
config *.hC.app[1].source.productionInterval 0.001s+uniform(-0.0001s,0.0001s)
config *.hC.app[1].source.packetLength "intuniform(100B, 200B)"
config *.hC.app[1].source.packetData "intuniform(0, 1)"
config *.hD.app[1].typename TcpClientApp
config *.hD.app[1].io.connectAddress "\"hA\""
config *.hD.app[1].io.connectPort 1000
config *.hD.app[1].source.productionInterval 0.001s+uniform(-0.0001s,0.0001s)
config *.hD.app[1].source.packetLength "intuniform(100B, 200B)"
config *.hD.app[1].source.packetData "intuniform(0, 1)"

par Red4Tcp.hA.ethg$o[0].channel typename "\"Red4Tcp.cable\""
par Red4Tcp.hA.ethg$o[0].channel disabled false
par Red4Tcp.hA.ethg$o[0].channel delay 1e-06s
attr unit s
par Red4Tcp.hA.ethg$o[0].channel datarate 4e+10bps
attr unit bps
par Red4Tcp.hA.ethg$o[0].channel ber 0
par Red4Tcp.hA.ethg$o[0].channel per 0
par Red4Tcp.switch1.ethg$o[0].channel typename "\"Red4Tcp.cable\""
par Red4Tcp.switch1.ethg$o[0].channel disabled false
par Red4Tcp.switch1.ethg$o[0].channel delay 1e-06s
attr unit s
par Red4Tcp.switch1.ethg$o[0].channel datarate 4e+10bps
attr unit bps
par Red4Tcp.switch1.ethg$o[0].channel ber 0
par Red4Tcp.switch1.ethg$o[0].channel per 0
par Red4Tcp.hB.ethg$o[0].channel typename "\"Red4Tcp.cable\""
par Red4Tcp.hB.ethg$o[0].channel disabled false
par Red4Tcp.hB.ethg$o[0].channel delay 1e-06s
attr unit s
par Red4Tcp.hB.ethg$o[0].channel datarate 4e+10bps
attr unit bps
par Red4Tcp.hB.ethg$o[0].channel ber 0
par Red4Tcp.hB.ethg$o[0].channel per 0
par Red4Tcp.switch1.ethg$o[1].channel typename "\"Red4Tcp.cable\""
par Red4Tcp.switch1.ethg$o[1].channel disabled false
par Red4Tcp.switch1.ethg$o[1].channel delay 1e-06s
attr unit s
par Red4Tcp.switch1.ethg$o[1].channel datarate 4e+10bps
attr unit bps
par Red4Tcp.switch1.ethg$o[1].channel ber 0
par Red4Tcp.switch1.ethg$o[1].channel per 0
par Red4Tcp.hC.ethg$o[0].channel typename "\"Red4Tcp.cable\""
par Red4Tcp.hC.ethg$o[0].channel disabled false
par Red4Tcp.hC.ethg$o[0].channel delay 1e-06s
attr unit s
par Red4Tcp.hC.ethg$o[0].channel datarate 4e+10bps
attr unit bps
par Red4Tcp.hC.ethg$o[0].channel ber 0
par Red4Tcp.hC.ethg$o[0].channel per 0
par Red4Tcp.switch2.ethg$o[0].channel typename "\"Red4Tcp.cable\""
par Red4Tcp.switch2.ethg$o[0].channel disabled false
par Red4Tcp.switch2.ethg$o[0].channel delay 1e-06s
attr unit s
par Red4Tcp.switch2.ethg$o[0].channel datarate 4e+10bps
attr unit bps
par Red4Tcp.switch2.ethg$o[0].channel ber 0
par Red4Tcp.switch2.ethg$o[0].channel per 0
par Red4Tcp.hD.ethg$o[0].channel typename "\"Red4Tcp.cable\""
par Red4Tcp.hD.ethg$o[0].channel disabled false
par Red4Tcp.hD.ethg$o[0].channel delay 1e-06s
attr unit s
par Red4Tcp.hD.ethg$o[0].channel datarate 4e+10bps
attr unit bps
par Red4Tcp.hD.ethg$o[0].channel ber 0
par Red4Tcp.hD.ethg$o[0].channel per 0
par Red4Tcp.switch2.ethg$o[1].channel typename "\"Red4Tcp.cable\""
par Red4Tcp.switch2.ethg$o[1].channel disabled false
par Red4Tcp.switch2.ethg$o[1].channel delay 1e-06s
attr unit s
par Red4Tcp.switch2.ethg$o[1].channel datarate 4e+10bps
attr unit bps
par Red4Tcp.switch2.ethg$o[1].channel ber 0
par Red4Tcp.switch2.ethg$o[1].channel per 0
par Red4Tcp.switch1.ethg$o[2].channel typename "\"Red4Tcp.cable\""
par Red4Tcp.switch1.ethg$o[2].channel disabled false
par Red4Tcp.switch1.ethg$o[2].channel delay 1e-06s
attr unit s
par Red4Tcp.switch1.ethg$o[2].channel datarate 4e+10bps
attr unit bps
par Red4Tcp.switch1.ethg$o[2].channel ber 0
par Red4Tcp.switch1.ethg$o[2].channel per 0
par Red4Tcp.switch2.ethg$o[2].channel typename "\"Red4Tcp.cable\""
par Red4Tcp.switch2.ethg$o[2].channel disabled false
par Red4Tcp.switch2.ethg$o[2].channel delay 1e-06s
attr unit s
par Red4Tcp.switch2.ethg$o[2].channel datarate 4e+10bps
attr unit bps
par Red4Tcp.switch2.ethg$o[2].channel ber 0
par Red4Tcp.switch2.ethg$o[2].channel per 0
par Red4Tcp.hA.ethg$i[0].channel typename "\"ned.IdealChannel\""
par Red4Tcp.hA.eth[0].phys$o.channel typename "\"ned.IdealChannel\""
par Red4Tcp.hA.interfaceTable typename "\"inet.networklayer.common.InterfaceTable\""
par Red4Tcp.hA.interfaceTable displayAddresses false
par Red4Tcp.hA.li typename "\"inet.common.MessageDispatcher\""
par Red4Tcp.hA.li displayStringTextFormat "\"processed %p pk (%l)\""
par Red4Tcp.hA.lo[0].upperLayerIn.channel typename "\"ned.IdealChannel\""
par Red4Tcp.hA.lo[0].lo.upperLayerOut.channel typename "\"ned.IdealChannel\""
par Red4Tcp.hA.lo[0].lo typename "\"inet.linklayer.loopback.Loopback\""
par Red4Tcp.hA.lo[0].lo interfaceTableModule "\"Red4Tcp.hA.interfaceTable\""
par Red4Tcp.hA.lo[0].lo mtu 4470B
attr unit B
scalar Red4Tcp.hA.lo[0].lo rcvdPkFromHl:count 0
attr interpolationmode none
attr source packetReceivedFromUpper
attr title "packets received from higher layer, count"
scalar Red4Tcp.hA.lo[0].lo rcvdPkFromHl:sum(packetBytes) 0
attr interpolationmode none
attr source packetReceivedFromUpper
attr title "packets received from higher layer, sum(packetBytes)"
scalar Red4Tcp.hA.lo[0].lo passedUpPk:count 0
attr interpolationmode none
attr source packetSentToUpper
attr title "packets passed to higher layer, count"
scalar Red4Tcp.hA.lo[0].lo passedUpPk:sum(packetBytes) 0
attr interpolationmode none
attr source packetSentToUpper
attr title "packets passed to higher layer, sum(packetBytes)"
par Red4Tcp.hA.lo[0] typename "\"inet.linklayer.loopback.LoopbackInterface\""
par Red4Tcp.hA.lo[0] displayStringTextFormat "\"%a (%i)\\n%m\""
par Red4Tcp.hA.lo[0] recordPcap false
par Red4Tcp.hA.lo[0] numPcapRecorders 0
par Red4Tcp.hA.lo[0] interfaceTableModule "\"Red4Tcp.hA.interfaceTable\""
par Red4Tcp.hA.eth[0].mac.phys$o.channel typename "\"ned.IdealChannel\""
par Red4Tcp.hA.eth[0].phys$i.channel typename "\"ned.IdealChannel\""
par Red4Tcp.hA.eth[0].encap.upperLayerOut.channel typename "\"ned.IdealChannel\""
par Red4Tcp.hA.eth[0].upperLayerIn.channel typename "\"ned.IdealChannel\""
par Red4Tcp.hA.eth[0].encap typename "\"inet.linklayer.ethernet.basic.EthernetEncapsulation\""
par Red4Tcp.hA.eth[0].encap interfaceTableModule "\"Red4Tcp.hA.interfaceTable\""
par Red4Tcp.hA.eth[0].encap useSNAP false
par Red4Tcp.hA.eth[0].encap fcsMode "\"declared\""
attr enum declared,computed
par Red4Tcp.hA.eth[0].encap registerProtocol false
par Red4Tcp.hA.eth[0].encap stopOperationExtraTime -1s
attr unit s
par Red4Tcp.hA.eth[0].encap stopOperationTimeout 2s
attr unit s
scalar Red4Tcp.hA.eth[0].encap pauseSent:count 0
attr title "pause sent, count"
scalar Red4Tcp.hA.eth[0].encap pauseSent:sum 0
attr title "pause sent, sum"
scalar Red4Tcp.hA.eth[0].encap decapPk:count 14
attr interpolationmode none
attr source decapPk
attr title "packets decapsulated, count"
scalar Red4Tcp.hA.eth[0].encap decapPk:sum(packetBytes) 1063
attr interpolationmode none
attr source decapPk
attr title "packets decapsulated, sum(packetBytes)"
scalar Red4Tcp.hA.eth[0].encap encapPk:count 12
attr interpolationmode none
attr source encapPk
attr title "packets encapsulated, count"
scalar Red4Tcp.hA.eth[0].encap encapPk:sum(packetBytes) 4071
attr interpolationmode none
attr source encapPk
attr title "packets encapsulated, sum(packetBytes)"
par Red4Tcp.hA.eth[0].mac.queue typename "\"inet.linklayer.ethernet.common.EthernetQueue\""
par Red4Tcp.hA.eth[0].mac.queue displayStringTextFormat "\"contains %p pk (%l) pushed %u\\npulled %o removed %r dropped %d\""
par Red4Tcp.hA.eth[0].mac.queue packetCapacity 10000
par Red4Tcp.hA.eth[0].mac.queue dataCapacity -1b
attr unit b
par Red4Tcp.hA.eth[0].mac.queue dropperClass "\"inet::queueing::PacketAtCollectionEndDropper\""
par Red4Tcp.hA.eth[0].mac.queue comparatorClass "\"inet::EthernetFrameTypeComparator\""
par Red4Tcp.hA.eth[0].mac.queue bufferModule "\"\""
scalar Red4Tcp.hA.eth[0].mac.queue packetPulled:count 12
attr interpolationmode none
attr title "packet pulled, count"
scalar Red4Tcp.hA.eth[0].mac.queue packetPulled:sum(packetBytes) 4287
attr interpolationmode none
attr title "packet pulled, sum(packetBytes)"
statistic Red4Tcp.hA.eth[0].mac.queue queueingTime:histogram
field count 12
field mean 3.35e-08
field stddev 5.757452087986e-08
field min 0
field max 1.396e-07
field sum 4.02e-07
field sqrsum 4.993008e-14
attr interpolationmode none
attr source queueingTime(packetPulled)
attr title "queueing times, histogram"
attr unit s
bin	-inf	0
bin	0	8
bin	2e-09	0
bin	4e-09	0
bin	6e-09	0
bin	8e-09	0
bin	1e-08	0
bin	1.2e-08	0
bin	1.4e-08	0
bin	1.6e-08	1
bin	1.8e-08	0
bin	2e-08	0
bin	2.2e-08	0
bin	2.4e-08	0
bin	2.6e-08	0
bin	2.8e-08	0
bin	3e-08	0
bin	3.2e-08	0
bin	3.4e-08	0
bin	3.6e-08	0
bin	3.8e-08	0
bin	4e-08	0
bin	4.2e-08	0
bin	4.4e-08	0
bin	4.6e-08	0
bin	4.8e-08	0
bin	5e-08	0
bin	5.2e-08	0
bin	5.4e-08	0
bin	5.6e-08	0
bin	5.8e-08	0
bin	6e-08	0
bin	6.2e-08	0
bin	6.4e-08	0
bin	6.6e-08	0
bin	6.8e-08	0
bin	7e-08	0
bin	7.2e-08	0
bin	7.4e-08	0
bin	7.6e-08	0
bin	7.8e-08	0
bin	8e-08	0
bin	8.2e-08	0
bin	8.4e-08	0
bin	8.6e-08	0
bin	8.8e-08	0
bin	9e-08	0
bin	9.2e-08	0
bin	9.4e-08	0
bin	9.6e-08	0
bin	9.8e-08	0
bin	1e-07	0
bin	1.02e-07	0
bin	1.04e-07	0
bin	1.06e-07	0
bin	1.08e-07	0
bin	1.1e-07	0
bin	1.12e-07	0
bin	1.14e-07	0
bin	1.16e-07	0
bin	1.18e-07	0
bin	1.2e-07	0
bin	1.22e-07	2
bin	1.24e-07	0
bin	1.26e-07	0
bin	1.28e-07	0
bin	1.3e-07	0
bin	1.32e-07	0
bin	1.34e-07	0
bin	1.36e-07	0
bin	1.38e-07	1
bin	1.4e-07	0
bin	1.42e-07	0
bin	1.44e-07	0
bin	1.46e-07	0
bin	1.48e-07	0
bin	1.5e-07	0
bin	1.52e-07	0
bin	1.54e-07	0
bin	1.56e-07	0
bin	1.58e-07	0
bin	1.6e-07	0
bin	1.62e-07	0
bin	1.64e-07	0
bin	1.66e-07	0
bin	1.68e-07	0
bin	1.7e-07	0
bin	1.72e-07	0
bin	1.74e-07	0
bin	1.76e-07	0
scalar Red4Tcp.hA.eth[0].mac.queue queueLength:max 2
attr autoWarmupFilter false
attr interpolationmode sample-hold
attr source "warmup(count(packetPushed) - count(packetPulled) - count(packetRemoved) - count(packetDropped))"
attr title "queue length, max"
attr type int
scalar Red4Tcp.hA.eth[0].mac.queue queueLength:timeavg 0.00019874211183474
attr autoWarmupFilter false
attr interpolationmode sample-hold
attr source "warmup(count(packetPushed) - count(packetPulled) - count(packetRemoved) - count(packetDropped))"
attr title "queue length, timeavg"
attr type int
scalar Red4Tcp.hA.eth[0].mac.queue packetPushed:count 12
attr interpolationmode none
attr title "packet pushed, count"
scalar Red4Tcp.hA.eth[0].mac.queue packetPushed:sum(packetBytes) 4287
attr interpolationmode none
attr title "packet pushed, sum(packetBytes)"
scalar Red4Tcp.hA.eth[0].mac.queue packetDropQueueOverflow:count 0
attr interpolationmode none
attr source packetDropReasonIsQueueOverflow(packetDropped)
attr title "packet drops: queue overflow, count"
scalar Red4Tcp.hA.eth[0].mac.queue packetDropQueueOverflow:sum(packetBytes) 0
attr interpolationmode none
attr source packetDropReasonIsQueueOverflow(packetDropped)
attr title "packet drops: queue overflow, sum(packetBytes)"
scalar Red4Tcp.hA.eth[0].mac.queue packetRemoved:count 0
attr interpolationmode none
attr title "packets removed, count"
scalar Red4Tcp.hA.eth[0].mac.queue packetRemoved:sum(packetBytes) 0
attr interpolationmode none
attr title "packets removed, sum(packetBytes)"
par Red4Tcp.hA.eth[0].mac typename "\"inet.linklayer.ethernet.basic.EthernetMac\""
par Red4Tcp.hA.eth[0].mac interfaceTableModule "\"Red4Tcp.hA.interfaceTable\""
par Red4Tcp.hA.eth[0].mac displayStringTextFormat "\"rate: %b\\nsent: %s, rcvd: %r\\nqueue: %q, drop: %d\""
par Red4Tcp.hA.eth[0].mac sendRawBytes false
par Red4Tcp.hA.eth[0].mac promiscuous false
par Red4Tcp.hA.eth[0].mac duplexMode true
par Red4Tcp.hA.eth[0].mac mtu 1500B
attr unit B
par Red4Tcp.hA.eth[0].mac stopOperationExtraTime -1s
attr unit s
par Red4Tcp.hA.eth[0].mac stopOperationTimeout 2s
attr unit s
scalar Red4Tcp.hA.eth[0].mac "simulated time" 0.002025781789
scalar Red4Tcp.hA.eth[0].mac full-duplex 1
scalar Red4Tcp.hA.eth[0].mac "frames/sec sent" 5923.6389946637
scalar Red4Tcp.hA.eth[0].mac "frames/sec rcvd" 6910.912160441
scalar Red4Tcp.hA.eth[0].mac "bits/sec sent" 17079825.767947
scalar Red4Tcp.hA.eth[0].mac "bits/sec rcvd" 5193056.8519885
scalar Red4Tcp.hA.eth[0].mac "rx channel idle (%)" 99.985911611924
scalar Red4Tcp.hA.eth[0].mac "rx channel utilization (%)" 0.014088388075642
scalar Red4Tcp.hA.eth[0].mac rxPausePkUnits:count 0
attr interpolationmode none
attr title "pause units received, count"
scalar Red4Tcp.hA.eth[0].mac rxPausePkUnits:sum 0
attr interpolationmode none
attr title "pause units received, sum"
scalar Red4Tcp.hA.eth[0].mac txPausePkUnits:count 0
attr interpolationmode none
attr title "pause units sent, count"
scalar Red4Tcp.hA.eth[0].mac txPausePkUnits:sum 0
attr interpolationmode none
attr title "pause units sent, sum"
scalar Red4Tcp.hA.eth[0].mac rxPkOk:count 14
attr interpolationmode none
attr source rxPkOk
attr title "packets received OK, count"
scalar Red4Tcp.hA.eth[0].mac rxPkOk:sum(packetBytes) 1315
attr interpolationmode none
attr source rxPkOk
attr title "packets received OK, sum(packetBytes)"
scalar Red4Tcp.hA.eth[0].mac txPk:count 12
attr interpolationmode none
attr source packetSentToLower
attr title "packets transmitted, count"
scalar Red4Tcp.hA.eth[0].mac txPk:sum(packetBytes) 4325
attr interpolationmode none
attr source packetSentToLower
attr title "packets transmitted, sum(packetBytes)"
scalar Red4Tcp.hA.eth[0].mac packetReceivedFromUpper:count 12
attr interpolationmode none
attr source packetReceivedFromUpper
attr title "packet bytes from higher layer, count"
scalar Red4Tcp.hA.eth[0].mac packetReceivedFromUpper:sum(packetBytes) 4287
attr interpolationmode none
attr source packetReceivedFromUpper
attr title "packet bytes from higher layer, sum(packetBytes)"
scalar Red4Tcp.hA.eth[0].mac passedUpPk:count 14
attr interpolationmode none
attr source packetSentToUpper
attr title "packets passed to higher layer, count"
scalar Red4Tcp.hA.eth[0].mac passedUpPk:sum(packetBytes) 1315
attr interpolationmode none
attr source packetSentToUpper
attr title "packets passed to higher layer, sum(packetBytes)"
scalar Red4Tcp.hA.eth[0].mac packetDropIncorrectlyReceived:count 0
attr interpolationmode none
attr source packetDropReasonIsIncorrectlyReceived(packetDropped)
attr title "packet drop: incorrectly received, count"
scalar Red4Tcp.hA.eth[0].mac packetDropIncorrectlyReceived:sum(packetBytes) 0
attr interpolationmode none
attr source packetDropReasonIsIncorrectlyReceived(packetDropped)
attr title "packet drop: incorrectly received, sum(packetBytes)"
scalar Red4Tcp.hA.eth[0].mac packetDropInterfaceDown:count 0
attr interpolationmode none
attr source packetDropReasonIsInterfaceDown(packetDropped)
attr title "packet drop: interface down, count"
scalar Red4Tcp.hA.eth[0].mac packetDropInterfaceDown:sum(packetBytes) 0
attr interpolationmode none
attr source packetDropReasonIsInterfaceDown(packetDropped)
attr title "packet drop: interface down, sum(packetBytes)"
scalar Red4Tcp.hA.eth[0].mac packetDropNotAddressedToUs:count 0
attr interpolationmode none
attr source packetDropReasonIsNotAddressedToUs(packetDropped)
attr title "packet drop: not addressed to us, count"
scalar Red4Tcp.hA.eth[0].mac packetDropNotAddressedToUs:sum(packetBytes) 0
attr interpolationmode none
attr source packetDropReasonIsNotAddressedToUs(packetDropped)
attr title "packet drop: not addressed to us, sum(packetBytes)"
par Red4Tcp.hA.eth[0] typename "\"inet.linklayer.ethernet.EthernetInterface\""
par Red4Tcp.hA.eth[0] displayStringTextFormat "\"%a (%i)\\n%m\""
par Red4Tcp.hA.eth[0] recordPcap false
par Red4Tcp.hA.eth[0] numPcapRecorders 0
par Red4Tcp.hA.eth[0] interfaceTableModule "\"Red4Tcp.hA.interfaceTable\""
par Red4Tcp.hA.eth[0] address "\"0A-AA-00-00-00-01\""
par Red4Tcp.hA.eth[0] duplexMode true
par Red4Tcp.hA.eth[0] csmacdSupport false
par Red4Tcp.hA.eth[0] bitrate 0bps
attr unit bps
par Red4Tcp.hA.eth[0] fcsMode "\"declared\""
attr enum declared,computed
par Red4Tcp.hA.ipv4.transportIn.channel typename "\"ned.IdealChannel\""
par Red4Tcp.hA.ipv4.up.out[0].channel typename "\"ned.IdealChannel\""
par Red4Tcp.hA.ipv4.lp.out[2].channel typename "\"ned.IdealChannel\""
par Red4Tcp.hA.ipv4.ifIn.channel typename "\"ned.IdealChannel\""
par Red4Tcp.hA.ipv4.configurator typename "\"inet.networklayer.configurator.ipv4.Ipv4NodeConfigurator\""
par Red4Tcp.hA.ipv4.configurator interfaceTableModule "\"Red4Tcp.hA.interfaceTable\""
par Red4Tcp.hA.ipv4.configurator routingTableModule "\"Red4Tcp.hA.ipv4.routingTable\""
par Red4Tcp.hA.ipv4.configurator networkConfiguratorModule "\"configurator\""
par Red4Tcp.hA.ipv4.configurator configureRoutingTable true
par Red4Tcp.hA.ipv4.routingTable typename "\"inet.networklayer.ipv4.Ipv4RoutingTable\""
par Red4Tcp.hA.ipv4.routingTable interfaceTableModule "\"Red4Tcp.hA.interfaceTable\""
par Red4Tcp.hA.ipv4.routingTable routerId "\"auto\""
par Red4Tcp.hA.ipv4.routingTable netmaskRoutes "\"*\""
par Red4Tcp.hA.ipv4.routingTable forwarding false
par Red4Tcp.hA.ipv4.routingTable multicastForwarding false
par Red4Tcp.hA.ipv4.routingTable useAdminDist false
par Red4Tcp.hA.ipv4.routingTable routingFile "\"\""
par Red4Tcp.hA.ipv4.natTable typename "\"inet.networklayer.ipv4.Ipv4NatTable\""
par Red4Tcp.hA.ipv4.natTable networkProtocolModule "\"^.ip\""
par Red4Tcp.hA.ipv4.natTable config "<config/> at content:1"
par Red4Tcp.hA.ipv4.up typename "\"inet.common.MessageDispatcher\""
par Red4Tcp.hA.ipv4.up displayStringTextFormat "\"processed %p pk (%l)\""
par Red4Tcp.hA.ipv4.igmp typename "\"inet.networklayer.ipv4.Igmpv2\""
par Red4Tcp.hA.ipv4.igmp interfaceTableModule "\"Red4Tcp.hA.interfaceTable\""
par Red4Tcp.hA.ipv4.igmp routingTableModule "\"Red4Tcp.hA.ipv4.routingTable\""
par Red4Tcp.hA.ipv4.igmp crcMode "\"declared\""
attr enum declared,computed
par Red4Tcp.hA.ipv4.igmp enabled true
par Red4Tcp.hA.ipv4.igmp robustnessVariable 2
par Red4Tcp.hA.ipv4.igmp queryInterval 125s
attr unit s
par Red4Tcp.hA.ipv4.igmp queryResponseInterval 10s
attr unit s
par Red4Tcp.hA.ipv4.igmp groupMembershipInterval 260s
attr unit s
par Red4Tcp.hA.ipv4.igmp otherQuerierPresentInterval 255s
attr unit s
par Red4Tcp.hA.ipv4.igmp startupQueryInterval 31.25s
attr unit s
par Red4Tcp.hA.ipv4.igmp startupQueryCount 2
par Red4Tcp.hA.ipv4.igmp lastMemberQueryInterval 1s
attr unit s
par Red4Tcp.hA.ipv4.igmp lastMemberQueryCount 2
par Red4Tcp.hA.ipv4.igmp unsolicitedReportInterval 10s
attr unit s
par Red4Tcp.hA.ipv4.icmp typename "\"inet.networklayer.ipv4.Icmp\""
par Red4Tcp.hA.ipv4.icmp interfaceTableModule "\"Red4Tcp.hA.interfaceTable\""
par Red4Tcp.hA.ipv4.icmp routingTableModule "\"Red4Tcp.hA.ipv4.routingTable\""
par Red4Tcp.hA.ipv4.icmp crcMode "\"declared\""
attr enum declared,computed
par Red4Tcp.hA.ipv4.icmp quoteLength 8B
attr unit B
par Red4Tcp.hA.ipv4.mp typename "\"inet.common.MessageDispatcher\""
par Red4Tcp.hA.ipv4.mp displayStringTextFormat "\"processed %p pk (%l)\""
par Red4Tcp.hA.ipv4.ip typename "\"inet.networklayer.ipv4.Ipv4\""
par Red4Tcp.hA.ipv4.ip interfaceTableModule "\"Red4Tcp.hA.interfaceTable\""
par Red4Tcp.hA.ipv4.ip routingTableModule "\"Red4Tcp.hA.ipv4.routingTable\""
par Red4Tcp.hA.ipv4.ip arpModule "\"Red4Tcp.hA.ipv4.arp\""
par Red4Tcp.hA.ipv4.ip icmpModule "\"Red4Tcp.hA.ipv4.icmp\""
par Red4Tcp.hA.ipv4.ip crcMode "\"declared\""
attr enum declared,computed
par Red4Tcp.hA.ipv4.ip timeToLive 32
par Red4Tcp.hA.ipv4.ip multicastTimeToLive 32
par Red4Tcp.hA.ipv4.ip fragmentTimeout 60s
attr unit s
par Red4Tcp.hA.ipv4.ip limitedBroadcast false
par Red4Tcp.hA.ipv4.ip directBroadcastInterfaces "\"\""
scalar Red4Tcp.hA.ipv4.ip packetDropAddressResolutionFailed:count 0
attr interpolationmode none
attr source packetDropReasonIsAddressResolutionFailed(packetDropped)
attr title "packet drop: address resolution failed, count"
scalar Red4Tcp.hA.ipv4.ip packetDropAddressResolutionFailed:sum(packetBytes) 0
attr interpolationmode none
attr source packetDropReasonIsAddressResolutionFailed(packetDropped)
attr title "packet drop: address resolution failed, sum(packetBytes)"
scalar Red4Tcp.hA.ipv4.ip packetDropHopLimitReached:count 0
attr interpolationmode none
attr source packetDropReasonIsHopLimitReached(packetDropped)
attr title "packet drop: hop limit reached, count"
scalar Red4Tcp.hA.ipv4.ip packetDropHopLimitReached:sum(packetBytes) 0
attr interpolationmode none
attr source packetDropReasonIsHopLimitReached(packetDropped)
attr title "packet drop: hop limit reached, sum(packetBytes)"
scalar Red4Tcp.hA.ipv4.ip packetDropForwardingDisabled:count 0
attr interpolationmode none
attr source packetDropReasonIsForwardingDisabled(packetDropped)
attr title "packet drop: forwarding disabled, count"
scalar Red4Tcp.hA.ipv4.ip packetDropForwardingDisabled:sum(packetBytes) 0
attr interpolationmode none
attr source packetDropReasonIsForwardingDisabled(packetDropped)
attr title "packet drop: forwarding disabled, sum(packetBytes)"
scalar Red4Tcp.hA.ipv4.ip packetDropNoInterfaceFound:count 0
attr interpolationmode none
attr source packetDropReasonIsNoInterfaceFound(packetDropped)
attr title "packet drop: no interface found, count"
scalar Red4Tcp.hA.ipv4.ip packetDropNoInterfaceFound:sum(packetBytes) 0
attr interpolationmode none
attr source packetDropReasonIsNoInterfaceFound(packetDropped)
attr title "packet drop: no interface found, sum(packetBytes)"
scalar Red4Tcp.hA.ipv4.ip packetDropNoRouteFound:count 0
attr interpolationmode none
attr source packetDropReasonIsNoRouteFound(packetDropped)
attr title "packet drop: no route found, count"
scalar Red4Tcp.hA.ipv4.ip packetDropNoRouteFound:sum(packetBytes) 0
attr interpolationmode none
attr source packetDropReasonIsNoRouteFound(packetDropped)
attr title "packet drop: no route found, sum(packetBytes)"
scalar Red4Tcp.hA.ipv4.ip packetDropUndefined:count 0
attr interpolationmode none
attr source packetDropReasonIsUndefined(packetDropped)
attr title "packet drop: undefined, count"
scalar Red4Tcp.hA.ipv4.ip packetDropUndefined:sum(packetBytes) 0
attr interpolationmode none
attr source packetDropReasonIsUndefined(packetDropped)
attr title "packet drop: undefined, sum(packetBytes)"
par Red4Tcp.hA.ipv4.arp typename "\"inet.networklayer.arp.ipv4.Arp\""
par Red4Tcp.hA.ipv4.arp interfaceTableModule "\"Red4Tcp.hA.interfaceTable\""
par Red4Tcp.hA.ipv4.arp routingTableModule "\"Red4Tcp.hA.ipv4.routingTable\""
par Red4Tcp.hA.ipv4.arp retryTimeout 1s
attr unit s
par Red4Tcp.hA.ipv4.arp retryCount 3
par Red4Tcp.hA.ipv4.arp cacheTimeout 120s
attr unit s
par Red4Tcp.hA.ipv4.arp proxyArpInterfaces "\"\""
scalar Red4Tcp.hA.ipv4.arp arpResolutionFailed:count 0
attr title "ARP failed resolutions, count"
scalar Red4Tcp.hA.ipv4.arp arpResolutionCompleted:count 1
attr title "ARP completed resolutions, count"
scalar Red4Tcp.hA.ipv4.arp arpResolutionInitiated:count 0
attr title "ARP initiated resolutions, count"
scalar Red4Tcp.hA.ipv4.arp arpReplySent:count 1
attr source arpReplySent
attr title "ARP replies sent, count"
scalar Red4Tcp.hA.ipv4.arp arpReplySent:sum(packetBytes) 28
attr source arpReplySent
attr title "ARP replies sent, sum(packetBytes)"
scalar Red4Tcp.hA.ipv4.arp arpRequestSent:count 0
attr source arpRequestSent
attr title "ARP request sent, count"
scalar Red4Tcp.hA.ipv4.arp arpRequestSent:sum(packetBytes) 0
attr source arpRequestSent
attr title "ARP request sent, sum(packetBytes)"
par Red4Tcp.hA.ipv4.lp typename "\"inet.common.MessageDispatcher\""
par Red4Tcp.hA.ipv4.lp displayStringTextFormat "\"processed %p pk (%l)\""
par Red4Tcp.hA.ipv4 typename "\"inet.networklayer.ipv4.Ipv4NetworkLayer\""
par Red4Tcp.hA.ipv4 forwarding false
par Red4Tcp.hA.ipv4 multicastForwarding false
par Red4Tcp.hA.ipv4 interfaceTableModule "\"Red4Tcp.hA.interfaceTable\""
par Red4Tcp.hA.ipv4 displayStringTextFormat "\"%i\""
par Red4Tcp.hA.nl typename "\"inet.common.MessageDispatcher\""
par Red4Tcp.hA.nl displayStringTextFormat "\"processed %p pk (%l)\""
par Red4Tcp.hA.udp typename "\"inet.transportlayer.udp.Udp\""
par Red4Tcp.hA.udp interfaceTableModule "\"Red4Tcp.hA.interfaceTable\""
par Red4Tcp.hA.udp icmpModule "\"^.ipv4.icmp\""
par Red4Tcp.hA.udp icmpv6Module "\"^.ipv6.icmpv6\""
par Red4Tcp.hA.udp crcMode "\"declared\""
attr enum disabled,declared,computed
scalar Red4Tcp.hA.udp packetReceived:count 0
attr interpolationmode none
attr source packetReceived
attr title "packets received, count"
scalar Red4Tcp.hA.udp packetReceived:sum(packetBytes) 0
attr interpolationmode none
attr source packetReceived
attr title "packets received, sum(packetBytes)"
scalar Red4Tcp.hA.udp packetSent:count 0
attr interpolationmode none
attr source packetSent
attr title "packets sent, count"
scalar Red4Tcp.hA.udp packetSent:sum(packetBytes) 0
attr interpolationmode none
attr source packetSent
attr title "packets sent, sum(packetBytes)"
scalar Red4Tcp.hA.udp passedUpPk:count 0
attr interpolationmode none
attr source packetSentToUpper
attr title "packets passed up, count"
scalar Red4Tcp.hA.udp droppedPkWrongPort:count 0
attr interpolationmode none
attr source packetDropReasonIsNoPortFound(packetDropped)
attr title "packets dropped (wrong port), count"
scalar Red4Tcp.hA.udp droppedPkBadChecksum:count 0
attr interpolationmode none
attr source packetDropReasonIsIncorrectlyReceived(packetDropped)
attr title "packets dropped (checksum error), count"
par Red4Tcp.hA.tcp.conn-0 typename "\"inet.transportlayer.tcp.TcpConnection\""
par Red4Tcp.hA.tcp.conn-8 typename "\"inet.transportlayer.tcp.TcpConnection\""
par Red4Tcp.hA.tcp typename "\"inet.transportlayer.tcp.Tcp\""
par Red4Tcp.hA.tcp crcMode "\"declared\""
attr enum declared,computed
par Red4Tcp.hA.tcp advertisedWindow 7504
par Red4Tcp.hA.tcp delayedAcksEnabled false
par Red4Tcp.hA.tcp nagleEnabled true
par Red4Tcp.hA.tcp limitedTransmitEnabled false
par Red4Tcp.hA.tcp increasedIWEnabled false
par Red4Tcp.hA.tcp sackSupport false
par Red4Tcp.hA.tcp windowScalingSupport false
par Red4Tcp.hA.tcp windowScalingFactor -1
par Red4Tcp.hA.tcp timestampSupport false
par Red4Tcp.hA.tcp mss 536
par Red4Tcp.hA.tcp msl 120s
attr unit s
par Red4Tcp.hA.tcp tcpAlgorithmClass "\"TcpReno\""
attr enum TcpVegas,TcpWestwood,TcpNewReno,TcpReno,TcpTahoe,TcpNoCongestionControl
par Red4Tcp.hA.tcp useDataNotification false
par Red4Tcp.hA.tcp dupthresh 3
par Red4Tcp.hA.tcp initialSsthresh 4294967295
par Red4Tcp.hA.tcp stopOperationExtraTime 0s
attr unit s
par Red4Tcp.hA.tcp stopOperationTimeout 2s
attr unit s
par Red4Tcp.hA.tcp ecnWillingness false
par Red4Tcp.hA.tcp dctcpGamma 0.0625
par Red4Tcp.hA.rdma typename "\"inet.transportlayer.rdma.Rdma\""
par Red4Tcp.hA.rdma interfaceTableModule "\"Red4Tcp.hA.interfaceTable\""
par Red4Tcp.hA.rdma crcMode "\"declared\""
attr enum disabled,declared,computed
scalar Red4Tcp.hA.rdma packetReceived:count 0
attr interpolationmode none
attr source packetReceived
attr title "packets received, count"
scalar Red4Tcp.hA.rdma packetReceived:sum(packetBytes) 0
attr interpolationmode none
attr source packetReceived
attr title "packets received, sum(packetBytes)"
scalar Red4Tcp.hA.rdma packetSent:count 0
attr interpolationmode none
attr source packetSent
attr title "packets sent, count"
scalar Red4Tcp.hA.rdma packetSent:sum(packetBytes) 0
attr interpolationmode none
attr source packetSent
attr title "packets sent, sum(packetBytes)"
scalar Red4Tcp.hA.rdma passedUpPk:count 0
attr interpolationmode none
attr source packetSentToUpper
attr title "packets passed up, count"
scalar Red4Tcp.hA.rdma droppedPkWrongPort:count 0
attr interpolationmode none
attr source packetDropReasonIsNoPortFound(packetDropped)
attr title "packets dropped (wrong port), count"
scalar Red4Tcp.hA.rdma droppedPkBadChecksum:count 0
attr interpolationmode none
attr source packetDropReasonIsIncorrectlyReceived(packetDropped)
attr title "packets dropped (checksum error), count"
par Red4Tcp.hA.tn typename "\"inet.common.MessageDispatcher\""
par Red4Tcp.hA.tn displayStringTextFormat "\"processed %p pk (%l)\""
par Red4Tcp.hA.app[0].ta.out[1].channel typename "\"ned.IdealChannel\""
par Red4Tcp.hA.app[0].socketIn.channel typename "\"ned.IdealChannel\""
par Red4Tcp.hA.app[0].listener typename "\"inet.applications.tcpapp.TcpServerListener\""
par Red4Tcp.hA.app[0].listener localAddress "\"\""
par Red4Tcp.hA.app[0].listener localPort 1000
par Red4Tcp.hA.app[0].listener serverConnectionModuleType "\"inet.applications.tcpapp.TcpRequestResponseApp\""
par Red4Tcp.hA.app[0].ta typename "\"inet.common.MessageDispatcher\""
par Red4Tcp.hA.app[0].ta displayStringTextFormat "\"processed %p pk (%l)\""
par Red4Tcp.hA.app[0].connection[0].source.multiplexer.out.channel typename "\"ned.IdealChannel\""
par Red4Tcp.hA.app[0].connection[0].source.provider[0] typename "\"inet.queueing.source.PassivePacketSource\""
par Red4Tcp.hA.app[0].connection[0].source.provider[0] displayStringTextFormat "\"created %p pk (%l)\""
par Red4Tcp.hA.app[0].connection[0].source.provider[0] packetNameFormat "\"%n-%c\""
par Red4Tcp.hA.app[0].connection[0].source.provider[0] packetRepresentation "\"byteCount\""
attr units bitCount,bits,byteCount,bytes,applicationPacket
par Red4Tcp.hA.app[0].connection[0].source.provider[0] packetLength "intuniform(100B, 1000B)"
attr unit b
par Red4Tcp.hA.app[0].connection[0].source.provider[0] packetData -1
par Red4Tcp.hA.app[0].connection[0].source.provider[0] attachCreationTimeTag true
par Red4Tcp.hA.app[0].connection[0].source.provider[0] attachIdentityTag true
par Red4Tcp.hA.app[0].connection[0].source.provider[0] attachDirectionTag true
par Red4Tcp.hA.app[0].connection[0].source.provider[0] clockModule "\"\""
par Red4Tcp.hA.app[0].connection[0].source.provider[0] providingInterval "uniform(0s, 2s)"
attr unit s
scalar Red4Tcp.hA.app[0].connection[0].source.provider[0] packetPulled:count 0
attr interpolationmode none
attr title "packets pulled, count"
scalar Red4Tcp.hA.app[0].connection[0].source.provider[0] packetPulled:sum(packetBytes) 0
attr interpolationmode none
attr title "packets pulled, sum(packetBytes)"
scalar Red4Tcp.hA.app[0].connection[0].source.provider[0] packetCreated:count 1
attr interpolationmode none
attr title "packets created, count"
scalar Red4Tcp.hA.app[0].connection[0].source.provider[0] packetCreated:sum(packetBytes) 586
attr interpolationmode none
attr title "packets created, sum(packetBytes)"
par Red4Tcp.hA.app[0].connection[0].source.provider[1] typename "\"inet.queueing.source.PassivePacketSource\""
par Red4Tcp.hA.app[0].connection[0].source.provider[1] displayStringTextFormat "\"created %p pk (%l)\""
par Red4Tcp.hA.app[0].connection[0].source.provider[1] packetNameFormat "\"%n-%c\""
par Red4Tcp.hA.app[0].connection[0].source.provider[1] packetRepresentation "\"byteCount\""
attr units bitCount,bits,byteCount,bytes,applicationPacket
par Red4Tcp.hA.app[0].connection[0].source.provider[1] packetLength "intuniform(1000B, 10000B)"
attr unit b
par Red4Tcp.hA.app[0].connection[0].source.provider[1] packetData -1
par Red4Tcp.hA.app[0].connection[0].source.provider[1] attachCreationTimeTag true
par Red4Tcp.hA.app[0].connection[0].source.provider[1] attachIdentityTag true
par Red4Tcp.hA.app[0].connection[0].source.provider[1] attachDirectionTag true
par Red4Tcp.hA.app[0].connection[0].source.provider[1] clockModule "\"\""
par Red4Tcp.hA.app[0].connection[0].source.provider[1] providingInterval "uniform(0s, 0.2s)"
attr unit s
scalar Red4Tcp.hA.app[0].connection[0].source.provider[1] packetPulled:count 1
attr interpolationmode none
attr title "packets pulled, count"
scalar Red4Tcp.hA.app[0].connection[0].source.provider[1] packetPulled:sum(packetBytes) 3599
attr interpolationmode none
attr title "packets pulled, sum(packetBytes)"
scalar Red4Tcp.hA.app[0].connection[0].source.provider[1] packetCreated:count 1
attr interpolationmode none
attr title "packets created, count"
scalar Red4Tcp.hA.app[0].connection[0].source.provider[1] packetCreated:sum(packetBytes) 3599
attr interpolationmode none
attr title "packets created, sum(packetBytes)"
par Red4Tcp.hA.app[0].connection[0].source.server[0] typename "\"inet.queueing.server.TokenBasedServer\""
par Red4Tcp.hA.app[0].connection[0].source.server[0] displayStringTextFormat "\"contains %n tk\\nserved %p pk (%l)\""
par Red4Tcp.hA.app[0].connection[0].source.server[0] initialNumTokens 0
par Red4Tcp.hA.app[0].connection[0].source.server[0] maxNumTokens "nan "
par Red4Tcp.hA.app[0].connection[0].source.server[0] tokenConsumptionPerPacket 1
par Red4Tcp.hA.app[0].connection[0].source.server[0] tokenConsumptionPerBit 0
scalar Red4Tcp.hA.app[0].connection[0].source.server[0] tokensDepleted:count 0
attr interpolationmode none
attr title "tokens depleted, count"
scalar Red4Tcp.hA.app[0].connection[0].source.server[0] tokensRemoved:sum 0
attr interpolationmode none
attr title "tokens removed, sum"
scalar Red4Tcp.hA.app[0].connection[0].source.server[0] tokensAdded:sum 0
attr interpolationmode none
attr title "tokens added, sum"
scalar Red4Tcp.hA.app[0].connection[0].source.server[0] packetServed:count 0
attr interpolationmode none
attr title "packets served, count"
scalar Red4Tcp.hA.app[0].connection[0].source.server[0] packetServed:sum(packetBytes) 0
attr interpolationmode none
attr title "packets served, sum(packetBytes)"
par Red4Tcp.hA.app[0].connection[0].source.server[1] typename "\"inet.queueing.server.TokenBasedServer\""
par Red4Tcp.hA.app[0].connection[0].source.server[1] displayStringTextFormat "\"contains %n tk\\nserved %p pk (%l)\""
par Red4Tcp.hA.app[0].connection[0].source.server[1] initialNumTokens 0
par Red4Tcp.hA.app[0].connection[0].source.server[1] maxNumTokens "nan "
par Red4Tcp.hA.app[0].connection[0].source.server[1] tokenConsumptionPerPacket 1
par Red4Tcp.hA.app[0].connection[0].source.server[1] tokenConsumptionPerBit 0
scalar Red4Tcp.hA.app[0].connection[0].source.server[1] tokensDepleted:count 0
attr interpolationmode none
attr title "tokens depleted, count"
scalar Red4Tcp.hA.app[0].connection[0].source.server[1] tokensRemoved:sum 16
attr interpolationmode none
attr title "tokens removed, sum"
scalar Red4Tcp.hA.app[0].connection[0].source.server[1] tokensAdded:sum 17
attr interpolationmode none
attr title "tokens added, sum"
scalar Red4Tcp.hA.app[0].connection[0].source.server[1] packetServed:count 1
attr interpolationmode none
attr title "packets served, count"
scalar Red4Tcp.hA.app[0].connection[0].source.server[1] packetServed:sum(packetBytes) 3599
attr interpolationmode none
attr title "packets served, sum(packetBytes)"
par Red4Tcp.hA.app[0].connection[0].source.multiplexer typename "\"inet.queueing.common.PacketMultiplexer\""
par Red4Tcp.hA.app[0].connection[0].source.multiplexer displayStringTextFormat "\"passed %p pk (%l)\""
scalar Red4Tcp.hA.app[0].connection[0].source.multiplexer packetPulled:count 0
attr interpolationmode none
attr title "packets pulled, count"
scalar Red4Tcp.hA.app[0].connection[0].source.multiplexer packetPulled:sum(packetBytes) 0
attr interpolationmode none
attr title "packets pulled, sum(packetBytes)"
scalar Red4Tcp.hA.app[0].connection[0].source.multiplexer packetPushed:count 0
attr interpolationmode none
attr title "packets pushed, count"
scalar Red4Tcp.hA.app[0].connection[0].source.multiplexer packetPushed:sum(packetBytes) 0
attr interpolationmode none
attr title "packets pushed, sum(packetBytes)"
par Red4Tcp.hA.app[0].connection[0].source.tokenGenerator typename "\"inet.queueing.tokengenerator.SignalBasedTokenGenerator\""
par Red4Tcp.hA.app[0].connection[0].source.tokenGenerator displayStringTextFormat "\"generated %t tk\\nto %s\""
par Red4Tcp.hA.app[0].connection[0].source.tokenGenerator serverModule "\"^.^.sink.server\""
par Red4Tcp.hA.app[0].connection[0].source.tokenGenerator subscriptionModule "\"^\""
par Red4Tcp.hA.app[0].connection[0].source.tokenGenerator signals "\"tokensDepleted\""
par Red4Tcp.hA.app[0].connection[0].source.tokenGenerator numTokens 1
scalar Red4Tcp.hA.app[0].connection[0].source.tokenGenerator tokensCreated:count 0
attr interpolationmode none
attr title "tokens created, count"
scalar Red4Tcp.hA.app[0].connection[0].source.tokenGenerator tokensCreated:sum 0
attr interpolationmode none
attr title "tokens created, sum"
par Red4Tcp.hA.app[0].connection[0].source typename "\"inet.queueing.source.ResponseProducer\""
par Red4Tcp.hA.app[0].connection[0].source numKind 2
par Red4Tcp.hA.app[0].connection[0].source requestConsumerModule "\"^.sink\""
par Red4Tcp.hA.app[0].connection[0].sink.queue typename "\"inet.queueing.queue.PacketQueue\""
par Red4Tcp.hA.app[0].connection[0].sink.queue displayStringTextFormat "\"contains %p pk (%l) pushed %u\\npulled %o removed %r dropped %d\""
par Red4Tcp.hA.app[0].connection[0].sink.queue packetCapacity -1
par Red4Tcp.hA.app[0].connection[0].sink.queue dataCapacity -1b
attr unit b
par Red4Tcp.hA.app[0].connection[0].sink.queue dropperClass "\"\""
par Red4Tcp.hA.app[0].connection[0].sink.queue comparatorClass "\"\""
par Red4Tcp.hA.app[0].connection[0].sink.queue bufferModule "\"\""
scalar Red4Tcp.hA.app[0].connection[0].sink.queue packetPulled:count 1
attr interpolationmode none
attr title "packet pulled, count"
scalar Red4Tcp.hA.app[0].connection[0].sink.queue packetPulled:sum(packetBytes) 109
attr interpolationmode none
attr title "packet pulled, sum(packetBytes)"
statistic Red4Tcp.hA.app[0].connection[0].sink.queue queueingTime:histogram
field count 1
field mean 0
field stddev -nan
field min 0
field max 0
field sum 0
field sqrsum 0
attr interpolationmode none
attr source queueingTime(packetPulled)
attr title "queueing times, histogram"
attr unit s
bin	-inf	0
bin	-0.5	0
bin	-0.48	0
bin	-0.46	0
bin	-0.44	0
bin	-0.42	0
bin	-0.4	0
bin	-0.38	0
bin	-0.36	0
bin	-0.34	0
bin	-0.32	0
bin	-0.3	0
bin	-0.28	0
bin	-0.26	0
bin	-0.24	0
bin	-0.22	0
bin	-0.2	0
bin	-0.18	0
bin	-0.16	0
bin	-0.14	0
bin	-0.12	0
bin	-0.1	0
bin	-0.08	0
bin	-0.06	0
bin	-0.04	0
bin	-0.02	0
bin	0	1
bin	0.02	0
bin	0.04	0
bin	0.06	0
bin	0.08	0
bin	0.1	0
bin	0.12	0
bin	0.14	0
bin	0.16	0
bin	0.18	0
bin	0.2	0
bin	0.22	0
bin	0.24	0
bin	0.26	0
bin	0.28	0
bin	0.3	0
bin	0.32	0
bin	0.34	0
bin	0.36	0
bin	0.38	0
bin	0.4	0
bin	0.42	0
bin	0.44	0
bin	0.46	0
bin	0.48	0
bin	0.5	0
scalar Red4Tcp.hA.app[0].connection[0].sink.queue queueLength:max 2
attr autoWarmupFilter false
attr interpolationmode sample-hold
attr source "warmup(count(packetPushed) - count(packetPulled) - count(packetRemoved) - count(packetDropped))"
attr title "queue length, max"
attr type int
scalar Red4Tcp.hA.app[0].connection[0].sink.queue queueLength:timeavg 0.50422775728202
attr autoWarmupFilter false
attr interpolationmode sample-hold
attr source "warmup(count(packetPushed) - count(packetPulled) - count(packetRemoved) - count(packetDropped))"
attr title "queue length, timeavg"
attr type int
scalar Red4Tcp.hA.app[0].connection[0].sink.queue packetPushed:count 3
attr interpolationmode none
attr title "packet pushed, count"
scalar Red4Tcp.hA.app[0].connection[0].sink.queue packetPushed:sum(packetBytes) 437
attr interpolationmode none
attr title "packet pushed, sum(packetBytes)"
scalar Red4Tcp.hA.app[0].connection[0].sink.queue packetDropQueueOverflow:count 0
attr interpolationmode none
attr source packetDropReasonIsQueueOverflow(packetDropped)
attr title "packet drops: queue overflow, count"
scalar Red4Tcp.hA.app[0].connection[0].sink.queue packetDropQueueOverflow:sum(packetBytes) 0
attr interpolationmode none
attr source packetDropReasonIsQueueOverflow(packetDropped)
attr title "packet drops: queue overflow, sum(packetBytes)"
scalar Red4Tcp.hA.app[0].connection[0].sink.queue packetRemoved:count 0
attr interpolationmode none
attr title "packets removed, count"
scalar Red4Tcp.hA.app[0].connection[0].sink.queue packetRemoved:sum(packetBytes) 0
attr interpolationmode none
attr title "packets removed, sum(packetBytes)"
par Red4Tcp.hA.app[0].connection[0].sink.server typename "\"inet.queueing.server.TokenBasedServer\""
par Red4Tcp.hA.app[0].connection[0].sink.server displayStringTextFormat "\"contains %n tk\\nserved %p pk (%l)\""
par Red4Tcp.hA.app[0].connection[0].sink.server initialNumTokens 1
par Red4Tcp.hA.app[0].connection[0].sink.server maxNumTokens "nan "
par Red4Tcp.hA.app[0].connection[0].sink.server tokenConsumptionPerPacket 1
par Red4Tcp.hA.app[0].connection[0].sink.server tokenConsumptionPerBit 0
scalar Red4Tcp.hA.app[0].connection[0].sink.server tokensDepleted:count 0
attr interpolationmode none
attr title "tokens depleted, count"
scalar Red4Tcp.hA.app[0].connection[0].sink.server tokensRemoved:sum 0
attr interpolationmode none
attr title "tokens removed, sum"
scalar Red4Tcp.hA.app[0].connection[0].sink.server tokensAdded:sum 0
attr interpolationmode none
attr title "tokens added, sum"
scalar Red4Tcp.hA.app[0].connection[0].sink.server packetServed:count 1
attr interpolationmode none
attr title "packets served, count"
scalar Red4Tcp.hA.app[0].connection[0].sink.server packetServed:sum(packetBytes) 109
attr interpolationmode none
attr title "packets served, sum(packetBytes)"
par Red4Tcp.hA.app[0].connection[0].sink.classifier typename "\"inet.queueing.classifier.PacketClassifier\""
par Red4Tcp.hA.app[0].connection[0].sink.classifier displayStringTextFormat "\"classified %p pk (%l)\""
par Red4Tcp.hA.app[0].connection[0].sink.classifier reverseOrder false
par Red4Tcp.hA.app[0].connection[0].sink.classifier classifierClass "\"inet::queueing::PacketDataClassifier\""
scalar Red4Tcp.hA.app[0].connection[0].sink.classifier packetPushed:count 1
attr interpolationmode none
attr title "packets pushed, count"
scalar Red4Tcp.hA.app[0].connection[0].sink.classifier packetPushed:sum(packetBytes) 109
attr interpolationmode none
attr title "packets pushed, sum(packetBytes)"
par Red4Tcp.hA.app[0].connection[0].sink.tokenGenerator[0] typename "\"inet.queueing.tokengenerator.PacketBasedTokenGenerator\""
par Red4Tcp.hA.app[0].connection[0].sink.tokenGenerator[0] displayStringTextFormat "\"processed %p pk (%l)\\ngenerated %t tk\\nto %s\""
par Red4Tcp.hA.app[0].connection[0].sink.tokenGenerator[0] serverModule "\"^.^.source.server[0]\""
par Red4Tcp.hA.app[0].connection[0].sink.tokenGenerator[0] numTokensPerPacket "intuniform(1, 5)"
par Red4Tcp.hA.app[0].connection[0].sink.tokenGenerator[0] numTokensPerBit 0
scalar Red4Tcp.hA.app[0].connection[0].sink.tokenGenerator[0] tokensCreated:count 0
attr interpolationmode none
attr title "tokens created, count"
scalar Red4Tcp.hA.app[0].connection[0].sink.tokenGenerator[0] tokensCreated:sum 0
attr interpolationmode none
attr title "tokens created, sum"
scalar Red4Tcp.hA.app[0].connection[0].sink.tokenGenerator[0] packetDropped:count 0
attr interpolationmode none
attr title "packets dropped, count"
scalar Red4Tcp.hA.app[0].connection[0].sink.tokenGenerator[0] packetDropped:sum(packetBytes) 0
attr interpolationmode none
attr title "packets dropped, sum(packetBytes)"
par Red4Tcp.hA.app[0].connection[0].sink.tokenGenerator[1] typename "\"inet.queueing.tokengenerator.PacketBasedTokenGenerator\""
par Red4Tcp.hA.app[0].connection[0].sink.tokenGenerator[1] displayStringTextFormat "\"processed %p pk (%l)\\ngenerated %t tk\\nto %s\""
par Red4Tcp.hA.app[0].connection[0].sink.tokenGenerator[1] serverModule "\"^.^.source.server[1]\""
par Red4Tcp.hA.app[0].connection[0].sink.tokenGenerator[1] numTokensPerPacket "intuniform(10, 20)"
par Red4Tcp.hA.app[0].connection[0].sink.tokenGenerator[1] numTokensPerBit 0
scalar Red4Tcp.hA.app[0].connection[0].sink.tokenGenerator[1] tokensCreated:count 1
attr interpolationmode none
attr title "tokens created, count"
scalar Red4Tcp.hA.app[0].connection[0].sink.tokenGenerator[1] tokensCreated:sum 17
attr interpolationmode none
attr title "tokens created, sum"
scalar Red4Tcp.hA.app[0].connection[0].sink.tokenGenerator[1] packetDropped:count 0
attr interpolationmode none
attr title "packets dropped, count"
scalar Red4Tcp.hA.app[0].connection[0].sink.tokenGenerator[1] packetDropped:sum(packetBytes) 0
attr interpolationmode none
attr title "packets dropped, sum(packetBytes)"
par Red4Tcp.hA.app[0].connection[0].sink typename "\"inet.queueing.sink.RequestConsumer\""
par Red4Tcp.hA.app[0].connection[0].sink numKind 2
par Red4Tcp.hA.app[0].connection[0].sink responseProducerModule "\"^.source\""
par Red4Tcp.hA.app[0].connection[0] typename "\"inet.applications.tcpapp.TcpRequestResponseApp\""
par Red4Tcp.hA.app[0].connection[0] numKind 2
par Red4Tcp.hA.app[0] typename "\"inet.applications.tcpapp.TcpServerApp\""
par Red4Tcp.hA.at typename "\"inet.common.MessageDispatcher\""
par Red4Tcp.hA.at displayStringTextFormat "\"processed %p pk (%l)\""
par Red4Tcp.hA typename "\"inet.node.inet.StandardHost\""
par Red4Tcp.hA hasStatus false
par Red4Tcp.hA osgModel "\"\""
par Red4Tcp.hA osgModelColor "\"\""
par Red4Tcp.hA canvasImage "\"\""
par Red4Tcp.hA canvasImageColor "\"\""
par Red4Tcp.hA recordPcap false
par Red4Tcp.hA numPcapRecorders 0
par Red4Tcp.hA numLoInterfaces 1
par Red4Tcp.hA numWlanInterfaces 0
par Red4Tcp.hA numEthInterfaces 0
par Red4Tcp.hA numPppInterfaces 0
par Red4Tcp.hA numTunInterfaces 0
par Red4Tcp.hA numVirtInterfaces 0
par Red4Tcp.hA hasIpv4 true
par Red4Tcp.hA hasIpv6 false
par Red4Tcp.hA hasGn false
par Red4Tcp.hA forwarding false
par Red4Tcp.hA multicastForwarding false
par Red4Tcp.hA hasUdp true
par Red4Tcp.hA hasTcp true
par Red4Tcp.hA hasSctp false
par Red4Tcp.hA hasRdma true
par Red4Tcp.hA numApps 1
par Red4Tcp.hB.ethg$i[0].channel typename "\"ned.IdealChannel\""
par Red4Tcp.hB.eth[0].phys$o.channel typename "\"ned.IdealChannel\""
par Red4Tcp.hB.interfaceTable typename "\"inet.networklayer.common.InterfaceTable\""
par Red4Tcp.hB.interfaceTable displayAddresses false
par Red4Tcp.hB.li typename "\"inet.common.MessageDispatcher\""
par Red4Tcp.hB.li displayStringTextFormat "\"processed %p pk (%l)\""
par Red4Tcp.hB.lo[0].upperLayerIn.channel typename "\"ned.IdealChannel\""
par Red4Tcp.hB.lo[0].lo.upperLayerOut.channel typename "\"ned.IdealChannel\""
par Red4Tcp.hB.lo[0].lo typename "\"inet.linklayer.loopback.Loopback\""
par Red4Tcp.hB.lo[0].lo interfaceTableModule "\"Red4Tcp.hB.interfaceTable\""
par Red4Tcp.hB.lo[0].lo mtu 4470B
attr unit B
scalar Red4Tcp.hB.lo[0].lo rcvdPkFromHl:count 0
attr interpolationmode none
attr source packetReceivedFromUpper
attr title "packets received from higher layer, count"
scalar Red4Tcp.hB.lo[0].lo rcvdPkFromHl:sum(packetBytes) 0
attr interpolationmode none
attr source packetReceivedFromUpper
attr title "packets received from higher layer, sum(packetBytes)"
scalar Red4Tcp.hB.lo[0].lo passedUpPk:count 0
attr interpolationmode none
attr source packetSentToUpper
attr title "packets passed to higher layer, count"
scalar Red4Tcp.hB.lo[0].lo passedUpPk:sum(packetBytes) 0
attr interpolationmode none
attr source packetSentToUpper
attr title "packets passed to higher layer, sum(packetBytes)"
par Red4Tcp.hB.lo[0] typename "\"inet.linklayer.loopback.LoopbackInterface\""
par Red4Tcp.hB.lo[0] displayStringTextFormat "\"%a (%i)\\n%m\""
par Red4Tcp.hB.lo[0] recordPcap false
par Red4Tcp.hB.lo[0] numPcapRecorders 0
par Red4Tcp.hB.lo[0] interfaceTableModule "\"Red4Tcp.hB.interfaceTable\""
par Red4Tcp.hB.eth[0].mac.phys$o.channel typename "\"ned.IdealChannel\""
par Red4Tcp.hB.eth[0].phys$i.channel typename "\"ned.IdealChannel\""
par Red4Tcp.hB.eth[0].encap.upperLayerOut.channel typename "\"ned.IdealChannel\""
par Red4Tcp.hB.eth[0].upperLayerIn.channel typename "\"ned.IdealChannel\""
par Red4Tcp.hB.eth[0].encap typename "\"inet.linklayer.ethernet.basic.EthernetEncapsulation\""
par Red4Tcp.hB.eth[0].encap interfaceTableModule "\"Red4Tcp.hB.interfaceTable\""
par Red4Tcp.hB.eth[0].encap useSNAP false
par Red4Tcp.hB.eth[0].encap fcsMode "\"declared\""
attr enum declared,computed
par Red4Tcp.hB.eth[0].encap registerProtocol false
par Red4Tcp.hB.eth[0].encap stopOperationExtraTime -1s
attr unit s
par Red4Tcp.hB.eth[0].encap stopOperationTimeout 2s
attr unit s
scalar Red4Tcp.hB.eth[0].encap pauseSent:count 0
attr title "pause sent, count"
scalar Red4Tcp.hB.eth[0].encap pauseSent:sum 0
attr title "pause sent, sum"
scalar Red4Tcp.hB.eth[0].encap decapPk:count 21
attr interpolationmode none
attr source decapPk
attr title "packets decapsulated, count"
scalar Red4Tcp.hB.eth[0].encap decapPk:sum(packetBytes) 1278
attr interpolationmode none
attr source decapPk
attr title "packets decapsulated, sum(packetBytes)"
scalar Red4Tcp.hB.eth[0].encap encapPk:count 19
attr interpolationmode none
attr source encapPk
attr title "packets encapsulated, count"
scalar Red4Tcp.hB.eth[0].encap encapPk:sum(packetBytes) 8496
attr interpolationmode none
attr source encapPk
attr title "packets encapsulated, sum(packetBytes)"
par Red4Tcp.hB.eth[0].mac.queue typename "\"inet.linklayer.ethernet.common.EthernetQueue\""
par Red4Tcp.hB.eth[0].mac.queue displayStringTextFormat "\"contains %p pk (%l) pushed %u\\npulled %o removed %r dropped %d\""
par Red4Tcp.hB.eth[0].mac.queue packetCapacity 10000
par Red4Tcp.hB.eth[0].mac.queue dataCapacity -1b
attr unit b
par Red4Tcp.hB.eth[0].mac.queue dropperClass "\"inet::queueing::PacketAtCollectionEndDropper\""
par Red4Tcp.hB.eth[0].mac.queue comparatorClass "\"inet::EthernetFrameTypeComparator\""
par Red4Tcp.hB.eth[0].mac.queue bufferModule "\"\""
scalar Red4Tcp.hB.eth[0].mac.queue packetPulled:count 19
attr interpolationmode none
attr title "packet pulled, count"
scalar Red4Tcp.hB.eth[0].mac.queue packetPulled:sum(packetBytes) 8838
attr interpolationmode none
attr title "packet pulled, sum(packetBytes)"
statistic Red4Tcp.hB.eth[0].mac.queue queueingTime:histogram
field count 19
field mean 7.2863157894737e-08
field stddev 8.4989020274689e-08
field min 0
field max 2.456e-07
field sum 1.3844e-06
field sqrsum 2.3088816e-13
attr interpolationmode none
attr source queueingTime(packetPulled)
attr title "queueing times, histogram"
attr unit s
bin	-inf	0
bin	0	9
bin	5e-09	0
bin	1e-08	0
bin	1.5e-08	1
bin	2e-08	0
bin	2.5e-08	0
bin	3e-08	0
bin	3.5e-08	0
bin	4e-08	0
bin	4.5e-08	0
bin	5e-08	0
bin	5.5e-08	0
bin	6e-08	0
bin	6.5e-08	0
bin	7e-08	0
bin	7.5e-08	0
bin	8e-08	0
bin	8.5e-08	0
bin	9e-08	0
bin	9.5e-08	0
bin	1e-07	0
bin	1.05e-07	0
bin	1.1e-07	0
bin	1.15e-07	0
bin	1.2e-07	6
bin	1.25e-07	0
bin	1.3e-07	0
bin	1.35e-07	1
bin	1.4e-07	0
bin	1.45e-07	0
bin	1.5e-07	0
bin	1.55e-07	0
bin	1.6e-07	0
bin	1.65e-07	0
bin	1.7e-07	0
bin	1.75e-07	0
bin	1.8e-07	0
bin	1.85e-07	0
bin	1.9e-07	0
bin	1.95e-07	0
bin	2e-07	0
bin	2.05e-07	0
bin	2.1e-07	0
bin	2.15e-07	0
bin	2.2e-07	0
bin	2.25e-07	0
bin	2.3e-07	0
bin	2.35e-07	0
bin	2.4e-07	0
bin	2.45e-07	2
bin	2.5e-07	0
bin	2.55e-07	0
bin	2.6e-07	0
bin	2.65e-07	0
bin	2.7e-07	0
bin	2.75e-07	0
bin	2.8e-07	0
bin	2.85e-07	0
bin	2.9e-07	0
bin	2.95e-07	0
bin	3e-07	0
bin	3.05e-07	0
bin	3.1e-07	0
scalar Red4Tcp.hB.eth[0].mac.queue queueLength:max 2
attr autoWarmupFilter false
attr interpolationmode sample-hold
attr source "warmup(count(packetPushed) - count(packetPulled) - count(packetRemoved) - count(packetDropped))"
attr title "queue length, max"
attr type int
scalar Red4Tcp.hB.eth[0].mac.queue queueLength:timeavg 0.00068441864288772
attr autoWarmupFilter false
attr interpolationmode sample-hold
attr source "warmup(count(packetPushed) - count(packetPulled) - count(packetRemoved) - count(packetDropped))"
attr title "queue length, timeavg"
attr type int
scalar Red4Tcp.hB.eth[0].mac.queue packetPushed:count 19
attr interpolationmode none
attr title "packet pushed, count"
scalar Red4Tcp.hB.eth[0].mac.queue packetPushed:sum(packetBytes) 8838
attr interpolationmode none
attr title "packet pushed, sum(packetBytes)"
scalar Red4Tcp.hB.eth[0].mac.queue packetDropQueueOverflow:count 0
attr interpolationmode none
attr source packetDropReasonIsQueueOverflow(packetDropped)
attr title "packet drops: queue overflow, count"
scalar Red4Tcp.hB.eth[0].mac.queue packetDropQueueOverflow:sum(packetBytes) 0
attr interpolationmode none
attr source packetDropReasonIsQueueOverflow(packetDropped)
attr title "packet drops: queue overflow, sum(packetBytes)"
scalar Red4Tcp.hB.eth[0].mac.queue packetRemoved:count 0
attr interpolationmode none
attr title "packets removed, count"
scalar Red4Tcp.hB.eth[0].mac.queue packetRemoved:sum(packetBytes) 0
attr interpolationmode none
attr title "packets removed, sum(packetBytes)"
par Red4Tcp.hB.eth[0].mac typename "\"inet.linklayer.ethernet.basic.EthernetMac\""
par Red4Tcp.hB.eth[0].mac interfaceTableModule "\"Red4Tcp.hB.interfaceTable\""
par Red4Tcp.hB.eth[0].mac displayStringTextFormat "\"rate: %b\\nsent: %s, rcvd: %r\\nqueue: %q, drop: %d\""
par Red4Tcp.hB.eth[0].mac sendRawBytes false
par Red4Tcp.hB.eth[0].mac promiscuous false
par Red4Tcp.hB.eth[0].mac duplexMode true
par Red4Tcp.hB.eth[0].mac mtu 1500B
attr unit B
par Red4Tcp.hB.eth[0].mac stopOperationExtraTime -1s
attr unit s
par Red4Tcp.hB.eth[0].mac stopOperationTimeout 2s
attr unit s
scalar Red4Tcp.hB.eth[0].mac "simulated time" 0.002025781789
scalar Red4Tcp.hB.eth[0].mac full-duplex 1
scalar Red4Tcp.hB.eth[0].mac "frames/sec sent" 9379.0950748842
scalar Red4Tcp.hB.eth[0].mac "frames/sec rcvd" 10366.368240661
scalar Red4Tcp.hB.eth[0].mac "bits/sec sent" 35028451.921778
scalar Red4Tcp.hB.eth[0].mac "bits/sec rcvd" 6539697.4501087
scalar Red4Tcp.hB.eth[0].mac "rx channel idle (%)" 99.981992137456
scalar Red4Tcp.hB.eth[0].mac "rx channel utilization (%)" 0.018007862543778
scalar Red4Tcp.hB.eth[0].mac rxPausePkUnits:count 0
attr interpolationmode none
attr title "pause units received, count"
scalar Red4Tcp.hB.eth[0].mac rxPausePkUnits:sum 0
attr interpolationmode none
attr title "pause units received, sum"
scalar Red4Tcp.hB.eth[0].mac txPausePkUnits:count 0
attr interpolationmode none
attr title "pause units sent, count"
scalar Red4Tcp.hB.eth[0].mac txPausePkUnits:sum 0
attr interpolationmode none
attr title "pause units sent, sum"
scalar Red4Tcp.hB.eth[0].mac rxPkOk:count 21
attr interpolationmode none
attr source rxPkOk
attr title "packets received OK, count"
scalar Red4Tcp.hB.eth[0].mac rxPkOk:sum(packetBytes) 1656
attr interpolationmode none
attr source rxPkOk
attr title "packets received OK, sum(packetBytes)"
scalar Red4Tcp.hB.eth[0].mac txPk:count 19
attr interpolationmode none
attr source packetSentToLower
attr title "packets transmitted, count"
scalar Red4Tcp.hB.eth[0].mac txPk:sum(packetBytes) 8870
attr interpolationmode none
attr source packetSentToLower
attr title "packets transmitted, sum(packetBytes)"
scalar Red4Tcp.hB.eth[0].mac packetReceivedFromUpper:count 19
attr interpolationmode none
attr source packetReceivedFromUpper
attr title "packet bytes from higher layer, count"
scalar Red4Tcp.hB.eth[0].mac packetReceivedFromUpper:sum(packetBytes) 8838
attr interpolationmode none
attr source packetReceivedFromUpper
attr title "packet bytes from higher layer, sum(packetBytes)"
scalar Red4Tcp.hB.eth[0].mac passedUpPk:count 21
attr interpolationmode none
attr source packetSentToUpper
attr title "packets passed to higher layer, count"
scalar Red4Tcp.hB.eth[0].mac passedUpPk:sum(packetBytes) 1656
attr interpolationmode none
attr source packetSentToUpper
attr title "packets passed to higher layer, sum(packetBytes)"
scalar Red4Tcp.hB.eth[0].mac packetDropIncorrectlyReceived:count 0
attr interpolationmode none
attr source packetDropReasonIsIncorrectlyReceived(packetDropped)
attr title "packet drop: incorrectly received, count"
scalar Red4Tcp.hB.eth[0].mac packetDropIncorrectlyReceived:sum(packetBytes) 0
attr interpolationmode none
attr source packetDropReasonIsIncorrectlyReceived(packetDropped)
attr title "packet drop: incorrectly received, sum(packetBytes)"
scalar Red4Tcp.hB.eth[0].mac packetDropInterfaceDown:count 0
attr interpolationmode none
attr source packetDropReasonIsInterfaceDown(packetDropped)
attr title "packet drop: interface down, count"
scalar Red4Tcp.hB.eth[0].mac packetDropInterfaceDown:sum(packetBytes) 0
attr interpolationmode none
attr source packetDropReasonIsInterfaceDown(packetDropped)
attr title "packet drop: interface down, sum(packetBytes)"
scalar Red4Tcp.hB.eth[0].mac packetDropNotAddressedToUs:count 0
attr interpolationmode none
attr source packetDropReasonIsNotAddressedToUs(packetDropped)
attr title "packet drop: not addressed to us, count"
scalar Red4Tcp.hB.eth[0].mac packetDropNotAddressedToUs:sum(packetBytes) 0
attr interpolationmode none
attr source packetDropReasonIsNotAddressedToUs(packetDropped)
attr title "packet drop: not addressed to us, sum(packetBytes)"
par Red4Tcp.hB.eth[0] typename "\"inet.linklayer.ethernet.EthernetInterface\""
par Red4Tcp.hB.eth[0] displayStringTextFormat "\"%a (%i)\\n%m\""
par Red4Tcp.hB.eth[0] recordPcap false
par Red4Tcp.hB.eth[0] numPcapRecorders 0
par Red4Tcp.hB.eth[0] interfaceTableModule "\"Red4Tcp.hB.interfaceTable\""
par Red4Tcp.hB.eth[0] address "\"0A-AA-00-00-00-02\""
par Red4Tcp.hB.eth[0] duplexMode true
par Red4Tcp.hB.eth[0] csmacdSupport false
par Red4Tcp.hB.eth[0] bitrate 0bps
attr unit bps
par Red4Tcp.hB.eth[0] fcsMode "\"declared\""
attr enum declared,computed
par Red4Tcp.hB.ipv4.transportIn.channel typename "\"ned.IdealChannel\""
par Red4Tcp.hB.ipv4.up.out[0].channel typename "\"ned.IdealChannel\""
par Red4Tcp.hB.ipv4.lp.out[2].channel typename "\"ned.IdealChannel\""
par Red4Tcp.hB.ipv4.ifIn.channel typename "\"ned.IdealChannel\""
par Red4Tcp.hB.ipv4.configurator typename "\"inet.networklayer.configurator.ipv4.Ipv4NodeConfigurator\""
par Red4Tcp.hB.ipv4.configurator interfaceTableModule "\"Red4Tcp.hB.interfaceTable\""
par Red4Tcp.hB.ipv4.configurator routingTableModule "\"Red4Tcp.hB.ipv4.routingTable\""
par Red4Tcp.hB.ipv4.configurator networkConfiguratorModule "\"configurator\""
par Red4Tcp.hB.ipv4.configurator configureRoutingTable true
par Red4Tcp.hB.ipv4.routingTable typename "\"inet.networklayer.ipv4.Ipv4RoutingTable\""
par Red4Tcp.hB.ipv4.routingTable interfaceTableModule "\"Red4Tcp.hB.interfaceTable\""
par Red4Tcp.hB.ipv4.routingTable routerId "\"auto\""
par Red4Tcp.hB.ipv4.routingTable netmaskRoutes "\"*\""
par Red4Tcp.hB.ipv4.routingTable forwarding false
par Red4Tcp.hB.ipv4.routingTable multicastForwarding false
par Red4Tcp.hB.ipv4.routingTable useAdminDist false
par Red4Tcp.hB.ipv4.routingTable routingFile "\"\""
par Red4Tcp.hB.ipv4.natTable typename "\"inet.networklayer.ipv4.Ipv4NatTable\""
par Red4Tcp.hB.ipv4.natTable networkProtocolModule "\"^.ip\""
par Red4Tcp.hB.ipv4.natTable config "<config/> at content:1"
par Red4Tcp.hB.ipv4.up typename "\"inet.common.MessageDispatcher\""
par Red4Tcp.hB.ipv4.up displayStringTextFormat "\"processed %p pk (%l)\""
par Red4Tcp.hB.ipv4.igmp typename "\"inet.networklayer.ipv4.Igmpv2\""
par Red4Tcp.hB.ipv4.igmp interfaceTableModule "\"Red4Tcp.hB.interfaceTable\""
par Red4Tcp.hB.ipv4.igmp routingTableModule "\"Red4Tcp.hB.ipv4.routingTable\""
par Red4Tcp.hB.ipv4.igmp crcMode "\"declared\""
attr enum declared,computed
par Red4Tcp.hB.ipv4.igmp enabled true
par Red4Tcp.hB.ipv4.igmp robustnessVariable 2
par Red4Tcp.hB.ipv4.igmp queryInterval 125s
attr unit s
par Red4Tcp.hB.ipv4.igmp queryResponseInterval 10s
attr unit s
par Red4Tcp.hB.ipv4.igmp groupMembershipInterval 260s
attr unit s
par Red4Tcp.hB.ipv4.igmp otherQuerierPresentInterval 255s
attr unit s
par Red4Tcp.hB.ipv4.igmp startupQueryInterval 31.25s
attr unit s
par Red4Tcp.hB.ipv4.igmp startupQueryCount 2
par Red4Tcp.hB.ipv4.igmp lastMemberQueryInterval 1s
attr unit s
par Red4Tcp.hB.ipv4.igmp lastMemberQueryCount 2
par Red4Tcp.hB.ipv4.igmp unsolicitedReportInterval 10s
attr unit s
par Red4Tcp.hB.ipv4.icmp typename "\"inet.networklayer.ipv4.Icmp\""
par Red4Tcp.hB.ipv4.icmp interfaceTableModule "\"Red4Tcp.hB.interfaceTable\""
par Red4Tcp.hB.ipv4.icmp routingTableModule "\"Red4Tcp.hB.ipv4.routingTable\""
par Red4Tcp.hB.ipv4.icmp crcMode "\"declared\""
attr enum declared,computed
par Red4Tcp.hB.ipv4.icmp quoteLength 8B
attr unit B
par Red4Tcp.hB.ipv4.mp typename "\"inet.common.MessageDispatcher\""
par Red4Tcp.hB.ipv4.mp displayStringTextFormat "\"processed %p pk (%l)\""
par Red4Tcp.hB.ipv4.ip typename "\"inet.networklayer.ipv4.Ipv4\""
par Red4Tcp.hB.ipv4.ip interfaceTableModule "\"Red4Tcp.hB.interfaceTable\""
par Red4Tcp.hB.ipv4.ip routingTableModule "\"Red4Tcp.hB.ipv4.routingTable\""
par Red4Tcp.hB.ipv4.ip arpModule "\"Red4Tcp.hB.ipv4.arp\""
par Red4Tcp.hB.ipv4.ip icmpModule "\"Red4Tcp.hB.ipv4.icmp\""
par Red4Tcp.hB.ipv4.ip crcMode "\"declared\""
attr enum declared,computed
par Red4Tcp.hB.ipv4.ip timeToLive 32
par Red4Tcp.hB.ipv4.ip multicastTimeToLive 32
par Red4Tcp.hB.ipv4.ip fragmentTimeout 60s
attr unit s
par Red4Tcp.hB.ipv4.ip limitedBroadcast false
par Red4Tcp.hB.ipv4.ip directBroadcastInterfaces "\"\""
scalar Red4Tcp.hB.ipv4.ip packetDropAddressResolutionFailed:count 0
attr interpolationmode none
attr source packetDropReasonIsAddressResolutionFailed(packetDropped)
attr title "packet drop: address resolution failed, count"
scalar Red4Tcp.hB.ipv4.ip packetDropAddressResolutionFailed:sum(packetBytes) 0
attr interpolationmode none
attr source packetDropReasonIsAddressResolutionFailed(packetDropped)
attr title "packet drop: address resolution failed, sum(packetBytes)"
scalar Red4Tcp.hB.ipv4.ip packetDropHopLimitReached:count 0
attr interpolationmode none
attr source packetDropReasonIsHopLimitReached(packetDropped)
attr title "packet drop: hop limit reached, count"
scalar Red4Tcp.hB.ipv4.ip packetDropHopLimitReached:sum(packetBytes) 0
attr interpolationmode none
attr source packetDropReasonIsHopLimitReached(packetDropped)
attr title "packet drop: hop limit reached, sum(packetBytes)"
scalar Red4Tcp.hB.ipv4.ip packetDropForwardingDisabled:count 0
attr interpolationmode none
attr source packetDropReasonIsForwardingDisabled(packetDropped)
attr title "packet drop: forwarding disabled, count"
scalar Red4Tcp.hB.ipv4.ip packetDropForwardingDisabled:sum(packetBytes) 0
attr interpolationmode none
attr source packetDropReasonIsForwardingDisabled(packetDropped)
attr title "packet drop: forwarding disabled, sum(packetBytes)"
scalar Red4Tcp.hB.ipv4.ip packetDropNoInterfaceFound:count 0
attr interpolationmode none
attr source packetDropReasonIsNoInterfaceFound(packetDropped)
attr title "packet drop: no interface found, count"
scalar Red4Tcp.hB.ipv4.ip packetDropNoInterfaceFound:sum(packetBytes) 0
attr interpolationmode none
attr source packetDropReasonIsNoInterfaceFound(packetDropped)
attr title "packet drop: no interface found, sum(packetBytes)"
scalar Red4Tcp.hB.ipv4.ip packetDropNoRouteFound:count 0
attr interpolationmode none
attr source packetDropReasonIsNoRouteFound(packetDropped)
attr title "packet drop: no route found, count"
scalar Red4Tcp.hB.ipv4.ip packetDropNoRouteFound:sum(packetBytes) 0
attr interpolationmode none
attr source packetDropReasonIsNoRouteFound(packetDropped)
attr title "packet drop: no route found, sum(packetBytes)"
scalar Red4Tcp.hB.ipv4.ip packetDropUndefined:count 0
attr interpolationmode none
attr source packetDropReasonIsUndefined(packetDropped)
attr title "packet drop: undefined, count"
scalar Red4Tcp.hB.ipv4.ip packetDropUndefined:sum(packetBytes) 0
attr interpolationmode none
attr source packetDropReasonIsUndefined(packetDropped)
attr title "packet drop: undefined, sum(packetBytes)"
par Red4Tcp.hB.ipv4.arp typename "\"inet.networklayer.arp.ipv4.Arp\""
par Red4Tcp.hB.ipv4.arp interfaceTableModule "\"Red4Tcp.hB.interfaceTable\""
par Red4Tcp.hB.ipv4.arp routingTableModule "\"Red4Tcp.hB.ipv4.routingTable\""
par Red4Tcp.hB.ipv4.arp retryTimeout 1s
attr unit s
par Red4Tcp.hB.ipv4.arp retryCount 3
par Red4Tcp.hB.ipv4.arp cacheTimeout 120s
attr unit s
par Red4Tcp.hB.ipv4.arp proxyArpInterfaces "\"\""
scalar Red4Tcp.hB.ipv4.arp arpResolutionFailed:count 0
attr title "ARP failed resolutions, count"
scalar Red4Tcp.hB.ipv4.arp arpResolutionCompleted:count 2
attr title "ARP completed resolutions, count"
scalar Red4Tcp.hB.ipv4.arp arpResolutionInitiated:count 0
attr title "ARP initiated resolutions, count"
scalar Red4Tcp.hB.ipv4.arp arpReplySent:count 1
attr source arpReplySent
attr title "ARP replies sent, count"
scalar Red4Tcp.hB.ipv4.arp arpReplySent:sum(packetBytes) 28
attr source arpReplySent
attr title "ARP replies sent, sum(packetBytes)"
scalar Red4Tcp.hB.ipv4.arp arpRequestSent:count 0
attr source arpRequestSent
attr title "ARP request sent, count"
scalar Red4Tcp.hB.ipv4.arp arpRequestSent:sum(packetBytes) 0
attr source arpRequestSent
attr title "ARP request sent, sum(packetBytes)"
par Red4Tcp.hB.ipv4.lp typename "\"inet.common.MessageDispatcher\""
par Red4Tcp.hB.ipv4.lp displayStringTextFormat "\"processed %p pk (%l)\""
par Red4Tcp.hB.ipv4 typename "\"inet.networklayer.ipv4.Ipv4NetworkLayer\""
par Red4Tcp.hB.ipv4 forwarding false
par Red4Tcp.hB.ipv4 multicastForwarding false
par Red4Tcp.hB.ipv4 interfaceTableModule "\"Red4Tcp.hB.interfaceTable\""
par Red4Tcp.hB.ipv4 displayStringTextFormat "\"%i\""
par Red4Tcp.hB.nl typename "\"inet.common.MessageDispatcher\""
par Red4Tcp.hB.nl displayStringTextFormat "\"processed %p pk (%l)\""
par Red4Tcp.hB.udp typename "\"inet.transportlayer.udp.Udp\""
par Red4Tcp.hB.udp interfaceTableModule "\"Red4Tcp.hB.interfaceTable\""
par Red4Tcp.hB.udp icmpModule "\"^.ipv4.icmp\""
par Red4Tcp.hB.udp icmpv6Module "\"^.ipv6.icmpv6\""
par Red4Tcp.hB.udp crcMode "\"declared\""
attr enum disabled,declared,computed
scalar Red4Tcp.hB.udp packetReceived:count 0
attr interpolationmode none
attr source packetReceived
attr title "packets received, count"
scalar Red4Tcp.hB.udp packetReceived:sum(packetBytes) 0
attr interpolationmode none
attr source packetReceived
attr title "packets received, sum(packetBytes)"
scalar Red4Tcp.hB.udp packetSent:count 0
attr interpolationmode none
attr source packetSent
attr title "packets sent, count"
scalar Red4Tcp.hB.udp packetSent:sum(packetBytes) 0
attr interpolationmode none
attr source packetSent
attr title "packets sent, sum(packetBytes)"
scalar Red4Tcp.hB.udp passedUpPk:count 0
attr interpolationmode none
attr source packetSentToUpper
attr title "packets passed up, count"
scalar Red4Tcp.hB.udp droppedPkWrongPort:count 0
attr interpolationmode none
attr source packetDropReasonIsNoPortFound(packetDropped)
attr title "packets dropped (wrong port), count"
scalar Red4Tcp.hB.udp droppedPkBadChecksum:count 0
attr interpolationmode none
attr source packetDropReasonIsIncorrectlyReceived(packetDropped)
attr title "packets dropped (checksum error), count"
par Red4Tcp.hB.tcp.conn-1 typename "\"inet.transportlayer.tcp.TcpConnection\""
par Red4Tcp.hB.tcp.conn-7 typename "\"inet.transportlayer.tcp.TcpConnection\""
par Red4Tcp.hB.tcp typename "\"inet.transportlayer.tcp.Tcp\""
par Red4Tcp.hB.tcp crcMode "\"declared\""
attr enum declared,computed
par Red4Tcp.hB.tcp advertisedWindow 7504
par Red4Tcp.hB.tcp delayedAcksEnabled false
par Red4Tcp.hB.tcp nagleEnabled true
par Red4Tcp.hB.tcp limitedTransmitEnabled false
par Red4Tcp.hB.tcp increasedIWEnabled false
par Red4Tcp.hB.tcp sackSupport false
par Red4Tcp.hB.tcp windowScalingSupport false
par Red4Tcp.hB.tcp windowScalingFactor -1
par Red4Tcp.hB.tcp timestampSupport false
par Red4Tcp.hB.tcp mss 536
par Red4Tcp.hB.tcp msl 120s
attr unit s
par Red4Tcp.hB.tcp tcpAlgorithmClass "\"TcpReno\""
attr enum TcpVegas,TcpWestwood,TcpNewReno,TcpReno,TcpTahoe,TcpNoCongestionControl
par Red4Tcp.hB.tcp useDataNotification false
par Red4Tcp.hB.tcp dupthresh 3
par Red4Tcp.hB.tcp initialSsthresh 4294967295
par Red4Tcp.hB.tcp stopOperationExtraTime 0s
attr unit s
par Red4Tcp.hB.tcp stopOperationTimeout 2s
attr unit s
par Red4Tcp.hB.tcp ecnWillingness false
par Red4Tcp.hB.tcp dctcpGamma 0.0625
par Red4Tcp.hB.rdma typename "\"inet.transportlayer.rdma.Rdma\""
par Red4Tcp.hB.rdma interfaceTableModule "\"Red4Tcp.hB.interfaceTable\""
par Red4Tcp.hB.rdma crcMode "\"declared\""
attr enum disabled,declared,computed
scalar Red4Tcp.hB.rdma packetReceived:count 0
attr interpolationmode none
attr source packetReceived
attr title "packets received, count"
scalar Red4Tcp.hB.rdma packetReceived:sum(packetBytes) 0
attr interpolationmode none
attr source packetReceived
attr title "packets received, sum(packetBytes)"
scalar Red4Tcp.hB.rdma packetSent:count 0
attr interpolationmode none
attr source packetSent
attr title "packets sent, count"
scalar Red4Tcp.hB.rdma packetSent:sum(packetBytes) 0
attr interpolationmode none
attr source packetSent
attr title "packets sent, sum(packetBytes)"
scalar Red4Tcp.hB.rdma passedUpPk:count 0
attr interpolationmode none
attr source packetSentToUpper
attr title "packets passed up, count"
scalar Red4Tcp.hB.rdma droppedPkWrongPort:count 0
attr interpolationmode none
attr source packetDropReasonIsNoPortFound(packetDropped)
attr title "packets dropped (wrong port), count"
scalar Red4Tcp.hB.rdma droppedPkBadChecksum:count 0
attr interpolationmode none
attr source packetDropReasonIsIncorrectlyReceived(packetDropped)
attr title "packets dropped (checksum error), count"
par Red4Tcp.hB.tn typename "\"inet.common.MessageDispatcher\""
par Red4Tcp.hB.tn displayStringTextFormat "\"processed %p pk (%l)\""
par Red4Tcp.hB.app[0].ta.out[1].channel typename "\"ned.IdealChannel\""
par Red4Tcp.hB.app[0].socketIn.channel typename "\"ned.IdealChannel\""
par Red4Tcp.hB.app[0].listener typename "\"inet.applications.tcpapp.TcpServerListener\""
par Red4Tcp.hB.app[0].listener localAddress "\"\""
par Red4Tcp.hB.app[0].listener localPort 1000
par Red4Tcp.hB.app[0].listener serverConnectionModuleType "\"inet.applications.tcpapp.TcpRequestResponseApp\""
par Red4Tcp.hB.app[0].ta typename "\"inet.common.MessageDispatcher\""
par Red4Tcp.hB.app[0].ta displayStringTextFormat "\"processed %p pk (%l)\""
par Red4Tcp.hB.app[0].connection[0].source.multiplexer.out.channel typename "\"ned.IdealChannel\""
par Red4Tcp.hB.app[0].connection[0].source.provider[0] typename "\"inet.queueing.source.PassivePacketSource\""
par Red4Tcp.hB.app[0].connection[0].source.provider[0] displayStringTextFormat "\"created %p pk (%l)\""
par Red4Tcp.hB.app[0].connection[0].source.provider[0] packetNameFormat "\"%n-%c\""
par Red4Tcp.hB.app[0].connection[0].source.provider[0] packetRepresentation "\"byteCount\""
attr units bitCount,bits,byteCount,bytes,applicationPacket
par Red4Tcp.hB.app[0].connection[0].source.provider[0] packetLength "intuniform(100B, 1000B)"
attr unit b
par Red4Tcp.hB.app[0].connection[0].source.provider[0] packetData -1
par Red4Tcp.hB.app[0].connection[0].source.provider[0] attachCreationTimeTag true
par Red4Tcp.hB.app[0].connection[0].source.provider[0] attachIdentityTag true
par Red4Tcp.hB.app[0].connection[0].source.provider[0] attachDirectionTag true
par Red4Tcp.hB.app[0].connection[0].source.provider[0] clockModule "\"\""
par Red4Tcp.hB.app[0].connection[0].source.provider[0] providingInterval "uniform(0s, 2s)"
attr unit s
scalar Red4Tcp.hB.app[0].connection[0].source.provider[0] packetPulled:count 0
attr interpolationmode none
attr title "packets pulled, count"
scalar Red4Tcp.hB.app[0].connection[0].source.provider[0] packetPulled:sum(packetBytes) 0
attr interpolationmode none
attr title "packets pulled, sum(packetBytes)"
scalar Red4Tcp.hB.app[0].connection[0].source.provider[0] packetCreated:count 1
attr interpolationmode none
attr title "packets created, count"
scalar Red4Tcp.hB.app[0].connection[0].source.provider[0] packetCreated:sum(packetBytes) 170
attr interpolationmode none
attr title "packets created, sum(packetBytes)"
par Red4Tcp.hB.app[0].connection[0].source.provider[1] typename "\"inet.queueing.source.PassivePacketSource\""
par Red4Tcp.hB.app[0].connection[0].source.provider[1] displayStringTextFormat "\"created %p pk (%l)\""
par Red4Tcp.hB.app[0].connection[0].source.provider[1] packetNameFormat "\"%n-%c\""
par Red4Tcp.hB.app[0].connection[0].source.provider[1] packetRepresentation "\"byteCount\""
attr units bitCount,bits,byteCount,bytes,applicationPacket
par Red4Tcp.hB.app[0].connection[0].source.provider[1] packetLength "intuniform(1000B, 10000B)"
attr unit b
par Red4Tcp.hB.app[0].connection[0].source.provider[1] packetData -1
par Red4Tcp.hB.app[0].connection[0].source.provider[1] attachCreationTimeTag true
par Red4Tcp.hB.app[0].connection[0].source.provider[1] attachIdentityTag true
par Red4Tcp.hB.app[0].connection[0].source.provider[1] attachDirectionTag true
par Red4Tcp.hB.app[0].connection[0].source.provider[1] clockModule "\"\""
par Red4Tcp.hB.app[0].connection[0].source.provider[1] providingInterval "uniform(0s, 0.2s)"
attr unit s
scalar Red4Tcp.hB.app[0].connection[0].source.provider[1] packetPulled:count 1
attr interpolationmode none
attr title "packets pulled, count"
scalar Red4Tcp.hB.app[0].connection[0].source.provider[1] packetPulled:sum(packetBytes) 7744
attr interpolationmode none
attr title "packets pulled, sum(packetBytes)"
scalar Red4Tcp.hB.app[0].connection[0].source.provider[1] packetCreated:count 1
attr interpolationmode none
attr title "packets created, count"
scalar Red4Tcp.hB.app[0].connection[0].source.provider[1] packetCreated:sum(packetBytes) 7744
attr interpolationmode none
attr title "packets created, sum(packetBytes)"
par Red4Tcp.hB.app[0].connection[0].source.server[0] typename "\"inet.queueing.server.TokenBasedServer\""
par Red4Tcp.hB.app[0].connection[0].source.server[0] displayStringTextFormat "\"contains %n tk\\nserved %p pk (%l)\""
par Red4Tcp.hB.app[0].connection[0].source.server[0] initialNumTokens 0
par Red4Tcp.hB.app[0].connection[0].source.server[0] maxNumTokens "nan "
par Red4Tcp.hB.app[0].connection[0].source.server[0] tokenConsumptionPerPacket 1
par Red4Tcp.hB.app[0].connection[0].source.server[0] tokenConsumptionPerBit 0
scalar Red4Tcp.hB.app[0].connection[0].source.server[0] tokensDepleted:count 0
attr interpolationmode none
attr title "tokens depleted, count"
scalar Red4Tcp.hB.app[0].connection[0].source.server[0] tokensRemoved:sum 0
attr interpolationmode none
attr title "tokens removed, sum"
scalar Red4Tcp.hB.app[0].connection[0].source.server[0] tokensAdded:sum 0
attr interpolationmode none
attr title "tokens added, sum"
scalar Red4Tcp.hB.app[0].connection[0].source.server[0] packetServed:count 0
attr interpolationmode none
attr title "packets served, count"
scalar Red4Tcp.hB.app[0].connection[0].source.server[0] packetServed:sum(packetBytes) 0
attr interpolationmode none
attr title "packets served, sum(packetBytes)"
par Red4Tcp.hB.app[0].connection[0].source.server[1] typename "\"inet.queueing.server.TokenBasedServer\""
par Red4Tcp.hB.app[0].connection[0].source.server[1] displayStringTextFormat "\"contains %n tk\\nserved %p pk (%l)\""
par Red4Tcp.hB.app[0].connection[0].source.server[1] initialNumTokens 0
par Red4Tcp.hB.app[0].connection[0].source.server[1] maxNumTokens "nan "
par Red4Tcp.hB.app[0].connection[0].source.server[1] tokenConsumptionPerPacket 1
par Red4Tcp.hB.app[0].connection[0].source.server[1] tokenConsumptionPerBit 0
scalar Red4Tcp.hB.app[0].connection[0].source.server[1] tokensDepleted:count 0
attr interpolationmode none
attr title "tokens depleted, count"
scalar Red4Tcp.hB.app[0].connection[0].source.server[1] tokensRemoved:sum 19
attr interpolationmode none
attr title "tokens removed, sum"
scalar Red4Tcp.hB.app[0].connection[0].source.server[1] tokensAdded:sum 20
attr interpolationmode none
attr title "tokens added, sum"
scalar Red4Tcp.hB.app[0].connection[0].source.server[1] packetServed:count 1
attr interpolationmode none
attr title "packets served, count"
scalar Red4Tcp.hB.app[0].connection[0].source.server[1] packetServed:sum(packetBytes) 7744
attr interpolationmode none
attr title "packets served, sum(packetBytes)"
par Red4Tcp.hB.app[0].connection[0].source.multiplexer typename "\"inet.queueing.common.PacketMultiplexer\""
par Red4Tcp.hB.app[0].connection[0].source.multiplexer displayStringTextFormat "\"passed %p pk (%l)\""
scalar Red4Tcp.hB.app[0].connection[0].source.multiplexer packetPulled:count 0
attr interpolationmode none
attr title "packets pulled, count"
scalar Red4Tcp.hB.app[0].connection[0].source.multiplexer packetPulled:sum(packetBytes) 0
attr interpolationmode none
attr title "packets pulled, sum(packetBytes)"
scalar Red4Tcp.hB.app[0].connection[0].source.multiplexer packetPushed:count 0
attr interpolationmode none
attr title "packets pushed, count"
scalar Red4Tcp.hB.app[0].connection[0].source.multiplexer packetPushed:sum(packetBytes) 0
attr interpolationmode none
attr title "packets pushed, sum(packetBytes)"
par Red4Tcp.hB.app[0].connection[0].source.tokenGenerator typename "\"inet.queueing.tokengenerator.SignalBasedTokenGenerator\""
par Red4Tcp.hB.app[0].connection[0].source.tokenGenerator displayStringTextFormat "\"generated %t tk\\nto %s\""
par Red4Tcp.hB.app[0].connection[0].source.tokenGenerator serverModule "\"^.^.sink.server\""
par Red4Tcp.hB.app[0].connection[0].source.tokenGenerator subscriptionModule "\"^\""
par Red4Tcp.hB.app[0].connection[0].source.tokenGenerator signals "\"tokensDepleted\""
par Red4Tcp.hB.app[0].connection[0].source.tokenGenerator numTokens 1
scalar Red4Tcp.hB.app[0].connection[0].source.tokenGenerator tokensCreated:count 0
attr interpolationmode none
attr title "tokens created, count"
scalar Red4Tcp.hB.app[0].connection[0].source.tokenGenerator tokensCreated:sum 0
attr interpolationmode none
[...]
scalar Red4Tcp.switch2.eth[1].mac.queue packetDropQueueOverflow:sum(packetBytes) 0
attr interpolationmode none
attr source packetDropReasonIsQueueOverflow(packetDropped)
attr title "packet drops: queue overflow, sum(packetBytes)"
scalar Red4Tcp.switch2.eth[1].mac.queue packetRemoved:count 0
attr interpolationmode none
attr title "packets removed, count"
scalar Red4Tcp.switch2.eth[1].mac.queue packetRemoved:sum(packetBytes) 0
attr interpolationmode none
attr title "packets removed, sum(packetBytes)"
par Red4Tcp.switch2.eth[1].mac typename "\"inet.linklayer.ethernet.basic.EthernetMac\""
par Red4Tcp.switch2.eth[1].mac interfaceTableModule "\"Red4Tcp.switch2.interfaceTable\""
par Red4Tcp.switch2.eth[1].mac displayStringTextFormat "\"rate: %b\\nsent: %s, rcvd: %r\\nqueue: %q, drop: %d\""
par Red4Tcp.switch2.eth[1].mac sendRawBytes false
par Red4Tcp.switch2.eth[1].mac promiscuous true
par Red4Tcp.switch2.eth[1].mac duplexMode true
par Red4Tcp.switch2.eth[1].mac mtu 1500B
attr unit B
par Red4Tcp.switch2.eth[1].mac stopOperationExtraTime -1s
attr unit s
par Red4Tcp.switch2.eth[1].mac stopOperationTimeout 2s
attr unit s
scalar Red4Tcp.switch2.eth[1].mac "simulated time" 0.002025781789
scalar Red4Tcp.switch2.eth[1].mac full-duplex 1
scalar Red4Tcp.switch2.eth[1].mac "frames/sec sent" 14809.097486659
scalar Red4Tcp.switch2.eth[1].mac "frames/sec rcvd" 14809.097486659
scalar Red4Tcp.switch2.eth[1].mac "bits/sec sent" 23358883.102291
scalar Red4Tcp.switch2.eth[1].mac "bits/sec rcvd" 36074961.477502
scalar Red4Tcp.switch2.eth[1].mac "rx channel idle (%)" 99.907443140708
scalar Red4Tcp.switch2.eth[1].mac "rx channel utilization (%)" 0.09255685929162
scalar Red4Tcp.switch2.eth[1].mac rxPausePkUnits:count 0
attr interpolationmode none
attr title "pause units received, count"
scalar Red4Tcp.switch2.eth[1].mac rxPausePkUnits:sum 0
attr interpolationmode none
attr title "pause units received, sum"
scalar Red4Tcp.switch2.eth[1].mac txPausePkUnits:count 0
attr interpolationmode none
attr title "pause units sent, count"
scalar Red4Tcp.switch2.eth[1].mac txPausePkUnits:sum 0
attr interpolationmode none
attr title "pause units sent, sum"
scalar Red4Tcp.switch2.eth[1].mac rxPkOk:count 30
attr interpolationmode none
attr source rxPkOk
attr title "packets received OK, count"
scalar Red4Tcp.switch2.eth[1].mac rxPkOk:sum(packetBytes) 9135
attr interpolationmode none
attr source rxPkOk
attr title "packets received OK, sum(packetBytes)"
scalar Red4Tcp.switch2.eth[1].mac txPk:count 30
attr interpolationmode none
attr source packetSentToLower
attr title "packets transmitted, count"
scalar Red4Tcp.switch2.eth[1].mac txPk:sum(packetBytes) 5915
attr interpolationmode none
attr source packetSentToLower
attr title "packets transmitted, sum(packetBytes)"
scalar Red4Tcp.switch2.eth[1].mac packetReceivedFromUpper:count 30
attr interpolationmode none
attr source packetReceivedFromUpper
attr title "packet bytes from higher layer, count"
scalar Red4Tcp.switch2.eth[1].mac packetReceivedFromUpper:sum(packetBytes) 5915
attr interpolationmode none
attr source packetReceivedFromUpper
attr title "packet bytes from higher layer, sum(packetBytes)"
scalar Red4Tcp.switch2.eth[1].mac passedUpPk:count 30
attr interpolationmode none
attr source packetSentToUpper
attr title "packets passed to higher layer, count"
scalar Red4Tcp.switch2.eth[1].mac passedUpPk:sum(packetBytes) 9135
attr interpolationmode none
attr source packetSentToUpper
attr title "packets passed to higher layer, sum(packetBytes)"
scalar Red4Tcp.switch2.eth[1].mac packetDropIncorrectlyReceived:count 0
attr interpolationmode none
attr source packetDropReasonIsIncorrectlyReceived(packetDropped)
attr title "packet drop: incorrectly received, count"
scalar Red4Tcp.switch2.eth[1].mac packetDropIncorrectlyReceived:sum(packetBytes) 0
attr interpolationmode none
attr source packetDropReasonIsIncorrectlyReceived(packetDropped)
attr title "packet drop: incorrectly received, sum(packetBytes)"
scalar Red4Tcp.switch2.eth[1].mac packetDropInterfaceDown:count 0
attr interpolationmode none
attr source packetDropReasonIsInterfaceDown(packetDropped)
attr title "packet drop: interface down, count"
scalar Red4Tcp.switch2.eth[1].mac packetDropInterfaceDown:sum(packetBytes) 0
attr interpolationmode none
attr source packetDropReasonIsInterfaceDown(packetDropped)
attr title "packet drop: interface down, sum(packetBytes)"
scalar Red4Tcp.switch2.eth[1].mac packetDropNotAddressedToUs:count 0
attr interpolationmode none
attr source packetDropReasonIsNotAddressedToUs(packetDropped)
attr title "packet drop: not addressed to us, count"
scalar Red4Tcp.switch2.eth[1].mac packetDropNotAddressedToUs:sum(packetBytes) 0
attr interpolationmode none
attr source packetDropReasonIsNotAddressedToUs(packetDropped)
attr title "packet drop: not addressed to us, sum(packetBytes)"
par Red4Tcp.switch2.eth[1] typename "\"inet.linklayer.ethernet.EthernetInterface\""
par Red4Tcp.switch2.eth[1] displayStringTextFormat "\"%a (%i)\\n%m\""
par Red4Tcp.switch2.eth[1] recordPcap false
par Red4Tcp.switch2.eth[1] numPcapRecorders 0
par Red4Tcp.switch2.eth[1] interfaceTableModule "\"Red4Tcp.switch2.interfaceTable\""
par Red4Tcp.switch2.eth[1] address "\"0A-AA-00-00-00-09\""
par Red4Tcp.switch2.eth[1] duplexMode true
par Red4Tcp.switch2.eth[1] csmacdSupport false
par Red4Tcp.switch2.eth[1] bitrate 0bps
attr unit bps
par Red4Tcp.switch2.eth[1] fcsMode "\"declared\""
attr enum declared,computed
par Red4Tcp.switch2.eth[2].mac.phys$o.channel typename "\"ned.IdealChannel\""
par Red4Tcp.switch2.eth[2].phys$i.channel typename "\"ned.IdealChannel\""
par Red4Tcp.switch2.eth[2].mac.queue typename "\"inet.linklayer.ethernet.common.EthernetQueue\""
par Red4Tcp.switch2.eth[2].mac.queue displayStringTextFormat "\"contains %p pk (%l) pushed %u\\npulled %o removed %r dropped %d\""
par Red4Tcp.switch2.eth[2].mac.queue packetCapacity 10000
par Red4Tcp.switch2.eth[2].mac.queue dataCapacity -1b
attr unit b
par Red4Tcp.switch2.eth[2].mac.queue dropperClass "\"inet::queueing::PacketAtCollectionEndDropper\""
par Red4Tcp.switch2.eth[2].mac.queue comparatorClass "\"inet::EthernetFrameTypeComparator\""
par Red4Tcp.switch2.eth[2].mac.queue bufferModule "\"\""
scalar Red4Tcp.switch2.eth[2].mac.queue packetPulled:count 32
attr interpolationmode none
attr title "packet pulled, count"
scalar Red4Tcp.switch2.eth[2].mac.queue packetPulled:sum(packetBytes) 2779
attr interpolationmode none
attr title "packet pulled, sum(packetBytes)"
statistic Red4Tcp.switch2.eth[2].mac.queue queueingTime:histogram
field count 32
field mean 2.16875e-09
field stddev 7.3957458347088e-09
field min 0
field max 3.58e-08
field sum 6.94e-08
field sqrsum 1.84612e-15
attr interpolationmode none
attr source queueingTime(packetPulled)
attr title "queueing times, histogram"
attr unit s
bin	-inf	0
bin	0	29
bin	5e-10	0
bin	1e-09	0
bin	1.5e-09	0
bin	2e-09	0
bin	2.5e-09	0
bin	3e-09	0
bin	3.5e-09	0
bin	4e-09	0
bin	4.5e-09	0
bin	5e-09	0
bin	5.5e-09	0
bin	6e-09	0
bin	6.5e-09	0
bin	7e-09	0
bin	7.5e-09	0
bin	8e-09	0
bin	8.5e-09	0
bin	9e-09	0
bin	9.5e-09	0
bin	1e-08	0
bin	1.05e-08	0
bin	1.1e-08	0
bin	1.15e-08	0
bin	1.2e-08	0
bin	1.25e-08	0
bin	1.3e-08	0
bin	1.35e-08	0
bin	1.4e-08	0
bin	1.45e-08	0
bin	1.5e-08	0
bin	1.55e-08	0
bin	1.6e-08	0
bin	1.65e-08	2
bin	1.7e-08	0
bin	1.75e-08	0
bin	1.8e-08	0
bin	1.85e-08	0
bin	1.9e-08	0
bin	1.95e-08	0
bin	2e-08	0
bin	2.05e-08	0
bin	2.1e-08	0
bin	2.15e-08	0
bin	2.2e-08	0
bin	2.25e-08	0
bin	2.3e-08	0
bin	2.35e-08	0
bin	2.4e-08	0
bin	2.45e-08	0
bin	2.5e-08	0
bin	2.55e-08	0
bin	2.6e-08	0
bin	2.65e-08	0
bin	2.7e-08	0
bin	2.75e-08	0
bin	2.8e-08	0
bin	2.85e-08	0
bin	2.9e-08	0
bin	2.95e-08	0
bin	3e-08	0
bin	3.05e-08	0
bin	3.1e-08	0
bin	3.15e-08	0
bin	3.2e-08	0
bin	3.25e-08	0
bin	3.3e-08	0
bin	3.35e-08	0
bin	3.4e-08	0
bin	3.45e-08	0
bin	3.5e-08	0
bin	3.55e-08	1
bin	3.6e-08	0
bin	3.65e-08	0
bin	3.7e-08	0
bin	3.75e-08	0
bin	3.8e-08	0
bin	3.85e-08	0
bin	3.9e-08	0
bin	3.95e-08	0
bin	4e-08	0
bin	4.05e-08	0
bin	4.1e-08	0
bin	4.15e-08	0
bin	4.2e-08	0
bin	4.25e-08	0
bin	4.3e-08	0
bin	4.35e-08	0
bin	4.4e-08	0
bin	4.45e-08	0
bin	4.5e-08	0
scalar Red4Tcp.switch2.eth[2].mac.queue queueLength:max 1
attr autoWarmupFilter false
attr interpolationmode sample-hold
attr source "warmup(count(packetPushed) - count(packetPulled) - count(packetRemoved) - count(packetDropped))"
attr title "queue length, max"
attr type int
scalar Red4Tcp.switch2.eth[2].mac.queue queueLength:timeavg 3.4275542157105e-05
attr autoWarmupFilter false
attr interpolationmode sample-hold
attr source "warmup(count(packetPushed) - count(packetPulled) - count(packetRemoved) - count(packetDropped))"
attr title "queue length, timeavg"
attr type int
scalar Red4Tcp.switch2.eth[2].mac.queue packetPushed:count 32
attr interpolationmode none
attr title "packet pushed, count"
scalar Red4Tcp.switch2.eth[2].mac.queue packetPushed:sum(packetBytes) 2779
attr interpolationmode none
attr title "packet pushed, sum(packetBytes)"
scalar Red4Tcp.switch2.eth[2].mac.queue packetDropQueueOverflow:count 0
attr interpolationmode none
attr source packetDropReasonIsQueueOverflow(packetDropped)
attr title "packet drops: queue overflow, count"
scalar Red4Tcp.switch2.eth[2].mac.queue packetDropQueueOverflow:sum(packetBytes) 0
attr interpolationmode none
attr source packetDropReasonIsQueueOverflow(packetDropped)
attr title "packet drops: queue overflow, sum(packetBytes)"
scalar Red4Tcp.switch2.eth[2].mac.queue packetRemoved:count 0
attr interpolationmode none
attr title "packets removed, count"
scalar Red4Tcp.switch2.eth[2].mac.queue packetRemoved:sum(packetBytes) 0
attr interpolationmode none
attr title "packets removed, sum(packetBytes)"
par Red4Tcp.switch2.eth[2].mac typename "\"inet.linklayer.ethernet.basic.EthernetMac\""
par Red4Tcp.switch2.eth[2].mac interfaceTableModule "\"Red4Tcp.switch2.interfaceTable\""
par Red4Tcp.switch2.eth[2].mac displayStringTextFormat "\"rate: %b\\nsent: %s, rcvd: %r\\nqueue: %q, drop: %d\""
par Red4Tcp.switch2.eth[2].mac sendRawBytes false
par Red4Tcp.switch2.eth[2].mac promiscuous true
par Red4Tcp.switch2.eth[2].mac duplexMode true
par Red4Tcp.switch2.eth[2].mac mtu 1500B
attr unit B
par Red4Tcp.switch2.eth[2].mac stopOperationExtraTime -1s
attr unit s
par Red4Tcp.switch2.eth[2].mac stopOperationTimeout 2s
attr unit s
scalar Red4Tcp.switch2.eth[2].mac "simulated time" 0.002025781789
scalar Red4Tcp.switch2.eth[2].mac full-duplex 1
scalar Red4Tcp.switch2.eth[2].mac "frames/sec sent" 15796.370652437
scalar Red4Tcp.switch2.eth[2].mac "frames/sec rcvd" 14809.097486659
scalar Red4Tcp.switch2.eth[2].mac "bits/sec sent" 10974528.51078
scalar Red4Tcp.switch2.eth[2].mac "bits/sec rcvd" 51855535.759286
scalar Red4Tcp.switch2.eth[2].mac "rx channel idle (%)" 99.867991705004
scalar Red4Tcp.switch2.eth[2].mac "rx channel utilization (%)" 0.13200829499608
scalar Red4Tcp.switch2.eth[2].mac rxPausePkUnits:count 0
attr interpolationmode none
attr title "pause units received, count"
scalar Red4Tcp.switch2.eth[2].mac rxPausePkUnits:sum 0
attr interpolationmode none
attr title "pause units received, sum"
scalar Red4Tcp.switch2.eth[2].mac txPausePkUnits:count 0
attr interpolationmode none
attr title "pause units sent, count"
scalar Red4Tcp.switch2.eth[2].mac txPausePkUnits:sum 0
attr interpolationmode none
attr title "pause units sent, sum"
scalar Red4Tcp.switch2.eth[2].mac rxPkOk:count 30
attr interpolationmode none
attr source rxPkOk
attr title "packets received OK, count"
scalar Red4Tcp.switch2.eth[2].mac rxPkOk:sum(packetBytes) 13131
attr interpolationmode none
attr source rxPkOk
attr title "packets received OK, sum(packetBytes)"
scalar Red4Tcp.switch2.eth[2].mac txPk:count 32
attr interpolationmode none
attr source packetSentToLower
attr title "packets transmitted, count"
scalar Red4Tcp.switch2.eth[2].mac txPk:sum(packetBytes) 2779
attr interpolationmode none
attr source packetSentToLower
attr title "packets transmitted, sum(packetBytes)"
scalar Red4Tcp.switch2.eth[2].mac packetReceivedFromUpper:count 32
attr interpolationmode none
attr source packetReceivedFromUpper
attr title "packet bytes from higher layer, count"
scalar Red4Tcp.switch2.eth[2].mac packetReceivedFromUpper:sum(packetBytes) 2779
attr interpolationmode none
attr source packetReceivedFromUpper
attr title "packet bytes from higher layer, sum(packetBytes)"
scalar Red4Tcp.switch2.eth[2].mac passedUpPk:count 30
attr interpolationmode none
attr source packetSentToUpper
attr title "packets passed to higher layer, count"
scalar Red4Tcp.switch2.eth[2].mac passedUpPk:sum(packetBytes) 13131
attr interpolationmode none
attr source packetSentToUpper
attr title "packets passed to higher layer, sum(packetBytes)"
scalar Red4Tcp.switch2.eth[2].mac packetDropIncorrectlyReceived:count 0
attr interpolationmode none
attr source packetDropReasonIsIncorrectlyReceived(packetDropped)
attr title "packet drop: incorrectly received, count"
scalar Red4Tcp.switch2.eth[2].mac packetDropIncorrectlyReceived:sum(packetBytes) 0
attr interpolationmode none
attr source packetDropReasonIsIncorrectlyReceived(packetDropped)
attr title "packet drop: incorrectly received, sum(packetBytes)"
scalar Red4Tcp.switch2.eth[2].mac packetDropInterfaceDown:count 0
attr interpolationmode none
attr source packetDropReasonIsInterfaceDown(packetDropped)
attr title "packet drop: interface down, count"
scalar Red4Tcp.switch2.eth[2].mac packetDropInterfaceDown:sum(packetBytes) 0
attr interpolationmode none
attr source packetDropReasonIsInterfaceDown(packetDropped)
attr title "packet drop: interface down, sum(packetBytes)"
scalar Red4Tcp.switch2.eth[2].mac packetDropNotAddressedToUs:count 0
attr interpolationmode none
attr source packetDropReasonIsNotAddressedToUs(packetDropped)
attr title "packet drop: not addressed to us, count"
scalar Red4Tcp.switch2.eth[2].mac packetDropNotAddressedToUs:sum(packetBytes) 0
attr interpolationmode none
attr source packetDropReasonIsNotAddressedToUs(packetDropped)
attr title "packet drop: not addressed to us, sum(packetBytes)"
par Red4Tcp.switch2.eth[2] typename "\"inet.linklayer.ethernet.EthernetInterface\""
par Red4Tcp.switch2.eth[2] displayStringTextFormat "\"%a (%i)\\n%m\""
par Red4Tcp.switch2.eth[2] recordPcap false
par Red4Tcp.switch2.eth[2] numPcapRecorders 0
par Red4Tcp.switch2.eth[2] interfaceTableModule "\"Red4Tcp.switch2.interfaceTable\""
par Red4Tcp.switch2.eth[2] address "\"0A-AA-00-00-00-0A\""
par Red4Tcp.switch2.eth[2] duplexMode true
par Red4Tcp.switch2.eth[2] csmacdSupport false
par Red4Tcp.switch2.eth[2] bitrate 0bps
attr unit bps
par Red4Tcp.switch2.eth[2] fcsMode "\"declared\""
attr enum declared,computed
par Red4Tcp.switch2.encap typename "\"inet.linklayer.ethernet.basic.EthernetEncapsulation\""
par Red4Tcp.switch2.encap interfaceTableModule "\"Red4Tcp.switch2.interfaceTable\""
par Red4Tcp.switch2.encap useSNAP false
par Red4Tcp.switch2.encap fcsMode "\"declared\""
attr enum declared,computed
par Red4Tcp.switch2.encap registerProtocol true
par Red4Tcp.switch2.encap stopOperationExtraTime -1s
attr unit s
par Red4Tcp.switch2.encap stopOperationTimeout 2s
attr unit s
scalar Red4Tcp.switch2.encap pauseSent:count 0
attr title "pause sent, count"
scalar Red4Tcp.switch2.encap pauseSent:sum 0
attr title "pause sent, sum"
scalar Red4Tcp.switch2.encap decapPk:count 0
attr interpolationmode none
attr source decapPk
attr title "packets decapsulated, count"
scalar Red4Tcp.switch2.encap decapPk:sum(packetBytes) 0
attr interpolationmode none
attr source decapPk
attr title "packets decapsulated, sum(packetBytes)"
scalar Red4Tcp.switch2.encap encapPk:count 0
attr interpolationmode none
attr source encapPk
attr title "packets encapsulated, count"
scalar Red4Tcp.switch2.encap encapPk:sum(packetBytes) 0
attr interpolationmode none
attr source encapPk
attr title "packets encapsulated, sum(packetBytes)"
par Red4Tcp.switch2.rl typename "\"inet.common.MessageDispatcher\""
par Red4Tcp.switch2.rl displayStringTextFormat "\"processed %p pk (%l)\""
par Red4Tcp.switch2.ieee8021q.qTagHeaderInserter.out.channel typename "\"ned.IdealChannel\""
par Red4Tcp.switch2.ieee8021q.lowerLayerIn.channel typename "\"ned.IdealChannel\""
par Red4Tcp.switch2.ieee8021q.qTagHeaderInserter typename "\"inet.linklayer.ieee8021q.Ieee8021qTagEpdHeaderInserter\""
par Red4Tcp.switch2.ieee8021q.qTagHeaderInserter displayStringTextFormat "\"processed %p pk (%l)\""
par Red4Tcp.switch2.ieee8021q.qTagHeaderInserter vlanTagType "\"c\""
attr enum c,s
par Red4Tcp.switch2.ieee8021q.qTagHeaderInserter nextProtocol "\"ethernetmac\""
par Red4Tcp.switch2.ieee8021q.qTagHeaderInserter defaultVlanId -1
par Red4Tcp.switch2.ieee8021q.qTagHeaderInserter defaultUserPriority -1
scalar Red4Tcp.switch2.ieee8021q.qTagHeaderInserter packetPulled:count 0
attr interpolationmode none
attr title "packets pulled, count"
scalar Red4Tcp.switch2.ieee8021q.qTagHeaderInserter packetPulled:sum(packetBytes) 0
attr interpolationmode none
attr title "packets pulled, sum(packetBytes)"
scalar Red4Tcp.switch2.ieee8021q.qTagHeaderInserter packetPushed:count 0
attr interpolationmode none
attr title "packets pushed, count"
scalar Red4Tcp.switch2.ieee8021q.qTagHeaderInserter packetPushed:sum(packetBytes) 0
attr interpolationmode none
attr title "packets pushed, sum(packetBytes)"
par Red4Tcp.switch2.ieee8021q.qTagHeaderChecker typename "\"inet.linklayer.ieee8021q.Ieee8021qTagEpdHeaderChecker\""
par Red4Tcp.switch2.ieee8021q.qTagHeaderChecker displayStringTextFormat "\"dropped %d/%p pk (%k/%l)\""
par Red4Tcp.switch2.ieee8021q.qTagHeaderChecker vlanTagType "\"c\""
attr enum c,s
par Red4Tcp.switch2.ieee8021q.qTagHeaderChecker vlanIdFilter "\"\""
scalar Red4Tcp.switch2.ieee8021q.qTagHeaderChecker packetPulled:count 0
attr interpolationmode none
attr title "packets pulled, count"
scalar Red4Tcp.switch2.ieee8021q.qTagHeaderChecker packetPulled:sum(packetBytes) 0
attr interpolationmode none
attr title "packets pulled, sum(packetBytes)"
scalar Red4Tcp.switch2.ieee8021q.qTagHeaderChecker packetPushed:count 0
attr interpolationmode none
attr title "packets pushed, count"
scalar Red4Tcp.switch2.ieee8021q.qTagHeaderChecker packetPushed:sum(packetBytes) 0
attr interpolationmode none
attr title "packets pushed, sum(packetBytes)"
scalar Red4Tcp.switch2.ieee8021q.qTagHeaderChecker packetDropped:count 0
attr interpolationmode none
attr title "packets dropped, count"
scalar Red4Tcp.switch2.ieee8021q.qTagHeaderChecker packetDropped:sum(packetBytes) 0
attr interpolationmode none
attr title "packets dropped, sum(packetBytes)"
par Red4Tcp.switch2.ieee8021q typename "\"inet.linklayer.ieee8021q.Ieee8021qLayer\""
par Red4Tcp.switch2.ieee8021q vlanTagType "\"c\""
par Red4Tcp.switch2.ieee8021q hasSocketSupport false
par Red4Tcp.switch2 typename "\"inet.node.ethernet.EthernetSwitch\""
par Red4Tcp.switch2 numPcapRecorders 0
par Red4Tcp.switch2 hasStatus false
par Red4Tcp.switch2 hasStp false
par Red4Tcp.switch2 enableCutthrough false
par Red4Tcp.switch2 fcsMode "\"declared\""
attr enum declared,computed
par Red4Tcp.switch2 spanningTreeProtocol "\"Stp\""
par Red4Tcp.switch2 numEthInterfaces 0
par Red4Tcp.configurator typename "\"inet.networklayer.configurator.ipv4.Ipv4NetworkConfigurator\""
par Red4Tcp.configurator minLinkWeight 0.001
par Red4Tcp.configurator configureIsolatedNetworksSeparatly false
par Red4Tcp.configurator config "<config>...</config> at content:1"
par Red4Tcp.configurator assignAddresses true
par Red4Tcp.configurator assignUniqueAddresses true
par Red4Tcp.configurator assignDisjunctSubnetAddresses true
par Red4Tcp.configurator addStaticRoutes true
par Red4Tcp.configurator addDefaultRoutes true
par Red4Tcp.configurator addSubnetRoutes true
par Red4Tcp.configurator addDirectRoutes true
par Red4Tcp.configurator optimizeRoutes true
par Red4Tcp.configurator dumpTopology false
par Red4Tcp.configurator dumpLinks false
par Red4Tcp.configurator dumpAddresses false
par Red4Tcp.configurator dumpRoutes false
par Red4Tcp.configurator dumpConfig "\"\""
par Red4Tcp typename "\"Red4Tcp\""

