version 3
run RequestResponseTraffic-0-20210929-13:23:37-15264
attr configname RequestResponseTraffic
attr datetime 20210929-13:23:37
attr datetimef 20210929-132337
attr experiment RequestResponseTraffic
attr inifile Red4Tcp.ini
attr iterationvars ""
attr iterationvarsd ""
attr iterationvarsf ""
attr measurement ""
attr network Red4Tcp
attr processid 15264
attr repetition 0
attr replication #0
attr resultdir results
attr runnumber 0
attr seedset 0
config debug-on-errors true
config image-path ../../inet/images
config *.hA.app[0].listener.serverConnectionModuleType "\"inet.applications.tcpapp.TcpRequestResponseApp\""
config *.hA.app[0].connection[*].sink.tokenGenerator[0].numTokensPerPacket "intuniform(1, 5)"
config *.hA.app[0].connection[*].source.provider[0].providingInterval "uniform(0s, 2s)"
config *.hA.app[0].connection[*].source.provider[0].packetLength "intuniform(100B, 1000B)"
config *.hA.app[0].connection[*].sink.tokenGenerator[1].numTokensPerPacket "intuniform(10, 20)"
config *.hA.app[0].connection[*].source.provider[1].providingInterval "uniform(0s, 0.2s)"
config *.hA.app[0].connection[*].source.provider[1].packetLength "intuniform(1000B, 10000B)"
config *.hB.app[0].listener.serverConnectionModuleType "\"inet.applications.tcpapp.TcpRequestResponseApp\""
config *.hB.app[0].connection[*].sink.tokenGenerator[0].numTokensPerPacket "intuniform(1, 5)"
config *.hB.app[0].connection[*].source.provider[0].providingInterval "uniform(0s, 2s)"
config *.hB.app[0].connection[*].source.provider[0].packetLength "intuniform(100B, 1000B)"
config *.hB.app[0].connection[*].sink.tokenGenerator[1].numTokensPerPacket "intuniform(10, 20)"
config *.hB.app[0].connection[*].source.provider[1].providingInterval "uniform(0s, 0.2s)"
config *.hB.app[0].connection[*].source.provider[1].packetLength "intuniform(1000B, 10000B)"
config *.hD.app[0].listener.serverConnectionModuleType "\"inet.applications.tcpapp.TcpRequestResponseApp\""
config *.hD.app[0].connection[*].sink.tokenGenerator[0].numTokensPerPacket "intuniform(1, 5)"
config *.hD.app[0].connection[*].source.provider[0].providingInterval "uniform(0s, 2s)"
config *.hD.app[0].connection[*].source.provider[0].packetLength "intuniform(100B, 1000B)"
config *.hD.app[0].connection[*].sink.tokenGenerator[1].numTokensPerPacket "intuniform(10, 20)"
config *.hD.app[0].connection[*].source.provider[1].providingInterval "uniform(0s, 0.2s)"
config *.hD.app[0].connection[*].source.provider[1].packetLength "intuniform(1000B, 10000B)"
config network Red4Tcp
config sim-time-limit 2s
config *.hA.numApps 1
config *.hB.numApps 1
config *.hC.numApps 2
config *.hD.numApps 2
config *.hA.app[0].typename TcpServerApp
config *.hA.app[0].listener.localPort 1000
config *.hB.app[0].typename TcpServerApp
config *.hB.app[0].listener.localPort 1000
config *.hD.app[0].typename TcpServerApp
config *.hD.app[0].listener.localPort 1000
config *.hC.app[0].typename TcpClientApp
config *.hC.app[0].io.connectAddress "\"hB\""
config *.hC.app[0].io.connectPort 1000
config *.hC.app[0].source.productionInterval 0.001s+uniform(-0.0001s,0.0001s)
config *.hC.app[0].source.packetLength "intuniform(100B, 200B)"
config *.hC.app[0].source.packetData "intuniform(0, 1)"
config *.hC.app[1].typename TcpClientApp
config *.hC.app[1].io.connectAddress "\"hD\""
config *.hC.app[1].io.connectPort 1000
config *.hC.app[1].source.productionInterval 0.001s+uniform(-0.0001s,0.0001s)
config *.hC.app[1].source.packetLength "intuniform(100B, 200B)"
config *.hC.app[1].source.packetData "intuniform(0, 1)"
config *.hD.app[1].typename TcpClientApp
config *.hD.app[1].io.connectAddress "\"hA\""
config *.hD.app[1].io.connectPort 1000
config *.hD.app[1].source.productionInterval 0.001s+uniform(-0.0001s,0.0001s)
config *.hD.app[1].source.packetLength "intuniform(100B, 200B)"
config *.hD.app[1].source.packetData "intuniform(0, 1)"

vector 0 Red4Tcp.hC.app[0].source packetCreated:vector(packetBytes) ETV
attr interpolationmode none
attr title "packets created, vector(packetBytes)"
vector 1 Red4Tcp.hC.app[1].source packetCreated:vector(packetBytes) ETV
attr interpolationmode none
attr title "packets created, vector(packetBytes)"
vector 2 Red4Tcp.hD.app[1].source packetCreated:vector(packetBytes) ETV
attr interpolationmode none
attr title "packets created, vector(packetBytes)"
vector 3 Red4Tcp.hC.tcp.conn-3 tcpRcvQueueBytes:vector ETV
attr interpolationmode sample-hold
vector 4 Red4Tcp.hC.tcp.conn-3 rcvAdv:vector ETV
attr interpolationmode sample-hold
vector 5 Red4Tcp.hC.tcp.conn-3 rcvWnd:vector ETV
attr interpolationmode sample-hold
vector 6 Red4Tcp.hC.tcp.conn-3 sndAck:vector ETV
attr interpolationmode sample-hold
vector 7 Red4Tcp.hC.tcp.conn-4 tcpRcvQueueBytes:vector ETV
attr interpolationmode sample-hold
vector 8 Red4Tcp.hC.tcp.conn-4 rcvAdv:vector ETV
attr interpolationmode sample-hold
vector 9 Red4Tcp.hC.tcp.conn-4 rcvWnd:vector ETV
attr interpolationmode sample-hold
vector 10 Red4Tcp.hC.tcp.conn-4 sndAck:vector ETV
attr interpolationmode sample-hold
vector 11 Red4Tcp.hD.tcp.conn-5 tcpRcvQueueBytes:vector ETV
attr interpolationmode sample-hold
vector 12 Red4Tcp.hD.tcp.conn-5 rcvAdv:vector ETV
attr interpolationmode sample-hold
vector 13 Red4Tcp.hD.tcp.conn-5 rcvWnd:vector ETV
attr interpolationmode sample-hold
vector 14 Red4Tcp.hD.tcp.conn-5 sndAck:vector ETV
attr interpolationmode sample-hold
vector 15 Red4Tcp.hC.ipv4.arp arpRequestSent:vector(packetBytes) ETV
attr source arpRequestSent
attr title "ARP request sent, vector(packetBytes)"
vector 16 Red4Tcp.hD.ipv4.arp arpRequestSent:vector(packetBytes) ETV
attr source arpRequestSent
attr title "ARP request sent, vector(packetBytes)"
vector 17 Red4Tcp.hC.eth[0].encap encapPk:vector(packetBytes) ETV
attr interpolationmode none
attr source encapPk
attr title "packets encapsulated, vector(packetBytes)"
vector 18 Red4Tcp.hD.eth[0].encap encapPk:vector(packetBytes) ETV
attr interpolationmode none
attr source encapPk
attr title "packets encapsulated, vector(packetBytes)"
vector 19 Red4Tcp.hC.eth[0].mac packetReceivedFromUpper:vector(packetBytes) ETV
attr interpolationmode none
attr source packetReceivedFromUpper
attr title "packet bytes from higher layer, vector(packetBytes)"
vector 20 Red4Tcp.hC.eth[0].mac.queue packetPushed:vector(packetBytes) ETV
attr interpolationmode none
attr title "packet pushed, vector(packetBytes)"
vector 21 Red4Tcp.hC.eth[0].mac.queue queueLength:vector ETV
attr autoWarmupFilter false
attr interpolationmode sample-hold
attr source "warmup(count(packetPushed) - count(packetPulled) - count(packetRemoved) - count(packetDropped))"
attr title "queue length, vector"
attr type int
vector 22 Red4Tcp.hC.eth[0].mac.queue packetPulled:vector(packetBytes) ETV
attr interpolationmode none
attr title "packet pulled, vector(packetBytes)"
vector 23 Red4Tcp.hC.eth[0].mac.queue queueingTime:vector ETV
attr interpolationmode none
attr source queueingTime(packetPulled)
attr title "queueing times, vector"
attr unit s
vector 24 Red4Tcp.hD.eth[0].mac packetReceivedFromUpper:vector(packetBytes) ETV
attr interpolationmode none
attr source packetReceivedFromUpper
attr title "packet bytes from higher layer, vector(packetBytes)"
vector 25 Red4Tcp.hD.eth[0].mac.queue packetPushed:vector(packetBytes) ETV
attr interpolationmode none
attr title "packet pushed, vector(packetBytes)"
vector 26 Red4Tcp.hD.eth[0].mac.queue queueLength:vector ETV
attr autoWarmupFilter false
attr interpolationmode sample-hold
attr source "warmup(count(packetPushed) - count(packetPulled) - count(packetRemoved) - count(packetDropped))"
attr title "queue length, vector"
attr type int
vector 27 Red4Tcp.hD.eth[0].mac.queue packetPulled:vector(packetBytes) ETV
attr interpolationmode none
attr title "packet pulled, vector(packetBytes)"
vector 28 Red4Tcp.hD.eth[0].mac.queue queueingTime:vector ETV
attr interpolationmode none
attr source queueingTime(packetPulled)
attr title "queueing times, vector"
attr unit s
vector 29 Red4Tcp.hC.eth[0].mac txPk:vector(packetBytes) ETV
attr interpolationmode none
attr source packetSentToLower
attr title "packets transmitted, vector(packetBytes)"
vector 30 Red4Tcp.hD.eth[0].mac txPk:vector(packetBytes) ETV
attr interpolationmode none
attr source packetSentToLower
attr title "packets transmitted, vector(packetBytes)"
vector 31 Red4Tcp.switch2.eth[0].mac rxPkOk:vector(packetBytes) ETV
attr interpolationmode none
attr source rxPkOk
attr title "packets received OK, vector(packetBytes)"
vector 32 Red4Tcp.switch2.eth[0].mac passedUpPk:vector(packetBytes) ETV
attr interpolationmode none
attr source packetSentToUpper
attr title "packets passed to higher layer, vector(packetBytes)"
vector 33 Red4Tcp.switch2.eth[1].mac rxPkOk:vector(packetBytes) ETV
attr interpolationmode none
attr source rxPkOk
attr title "packets received OK, vector(packetBytes)"
vector 34 Red4Tcp.switch2.eth[1].mac passedUpPk:vector(packetBytes) ETV
attr interpolationmode none
attr source packetSentToUpper
attr title "packets passed to higher layer, vector(packetBytes)"
vector 35 Red4Tcp.switch2.eth[1].mac packetReceivedFromUpper:vector(packetBytes) ETV
attr interpolationmode none
attr source packetReceivedFromUpper
attr title "packet bytes from higher layer, vector(packetBytes)"
vector 36 Red4Tcp.switch2.eth[1].mac.queue packetPushed:vector(packetBytes) ETV
attr interpolationmode none
attr title "packet pushed, vector(packetBytes)"
vector 37 Red4Tcp.switch2.eth[1].mac.queue queueLength:vector ETV
attr autoWarmupFilter false
attr interpolationmode sample-hold
attr source "warmup(count(packetPushed) - count(packetPulled) - count(packetRemoved) - count(packetDropped))"
attr title "queue length, vector"
attr type int
vector 38 Red4Tcp.switch2.eth[1].mac.queue packetPulled:vector(packetBytes) ETV
attr interpolationmode none
attr title "packet pulled, vector(packetBytes)"
vector 39 Red4Tcp.switch2.eth[1].mac.queue queueingTime:vector ETV
attr interpolationmode none
attr source queueingTime(packetPulled)
attr title "queueing times, vector"
attr unit s
vector 40 Red4Tcp.switch2.eth[2].mac packetReceivedFromUpper:vector(packetBytes) ETV
attr interpolationmode none
attr source packetReceivedFromUpper
attr title "packet bytes from higher layer, vector(packetBytes)"
vector 41 Red4Tcp.switch2.eth[2].mac.queue packetPushed:vector(packetBytes) ETV
attr interpolationmode none
attr title "packet pushed, vector(packetBytes)"
vector 42 Red4Tcp.switch2.eth[2].mac.queue queueLength:vector ETV
attr autoWarmupFilter false
attr interpolationmode sample-hold
attr source "warmup(count(packetPushed) - count(packetPulled) - count(packetRemoved) - count(packetDropped))"
attr title "queue length, vector"
attr type int
vector 43 Red4Tcp.switch2.eth[2].mac.queue packetPulled:vector(packetBytes) ETV
attr interpolationmode none
attr title "packet pulled, vector(packetBytes)"
vector 44 Red4Tcp.switch2.eth[2].mac.queue queueingTime:vector ETV
attr interpolationmode none
attr source queueingTime(packetPulled)
attr title "queueing times, vector"
attr unit s
vector 45 Red4Tcp.switch2.eth[0].mac packetReceivedFromUpper:vector(packetBytes) ETV
attr interpolationmode none
attr source packetReceivedFromUpper
attr title "packet bytes from higher layer, vector(packetBytes)"
vector 46 Red4Tcp.switch2.eth[0].mac.queue packetPushed:vector(packetBytes) ETV
attr interpolationmode none
attr title "packet pushed, vector(packetBytes)"
vector 47 Red4Tcp.switch2.eth[0].mac.queue queueLength:vector ETV
attr autoWarmupFilter false
attr interpolationmode sample-hold
attr source "warmup(count(packetPushed) - count(packetPulled) - count(packetRemoved) - count(packetDropped))"
attr title "queue length, vector"
attr type int
vector 48 Red4Tcp.switch2.eth[0].mac.queue packetPulled:vector(packetBytes) ETV
attr interpolationmode none
attr title "packet pulled, vector(packetBytes)"
vector 49 Red4Tcp.switch2.eth[0].mac.queue queueingTime:vector ETV
attr interpolationmode none
attr source queueingTime(packetPulled)
attr title "queueing times, vector"
attr unit s
vector 50 Red4Tcp.switch2.eth[1].mac txPk:vector(packetBytes) ETV
attr interpolationmode none
attr source packetSentToLower
attr title "packets transmitted, vector(packetBytes)"
vector 51 Red4Tcp.switch2.eth[2].mac txPk:vector(packetBytes) ETV
attr interpolationmode none
attr source packetSentToLower
attr title "packets transmitted, vector(packetBytes)"
vector 52 Red4Tcp.switch2.eth[0].mac txPk:vector(packetBytes) ETV
attr interpolationmode none
attr source packetSentToLower
attr title "packets transmitted, vector(packetBytes)"
vector 53 Red4Tcp.hD.eth[0].mac rxPkOk:vector(packetBytes) ETV
attr interpolationmode none
attr source rxPkOk
attr title "packets received OK, vector(packetBytes)"
vector 54 Red4Tcp.hD.eth[0].mac passedUpPk:vector(packetBytes) ETV
attr interpolationmode none
attr source packetSentToUpper
attr title "packets passed to higher layer, vector(packetBytes)"
vector 55 Red4Tcp.switch1.eth[2].mac rxPkOk:vector(packetBytes) ETV
attr interpolationmode none
attr source rxPkOk
attr title "packets received OK, vector(packetBytes)"
vector 56 Red4Tcp.switch1.eth[2].mac passedUpPk:vector(packetBytes) ETV
attr interpolationmode none
attr source packetSentToUpper
attr title "packets passed to higher layer, vector(packetBytes)"
vector 57 Red4Tcp.hC.eth[0].mac rxPkOk:vector(packetBytes) ETV
attr interpolationmode none
attr source rxPkOk
attr title "packets received OK, vector(packetBytes)"
vector 58 Red4Tcp.hC.eth[0].mac passedUpPk:vector(packetBytes) ETV
attr interpolationmode none
attr source packetSentToUpper
attr title "packets passed to higher layer, vector(packetBytes)"
vector 59 Red4Tcp.hD.eth[0].encap decapPk:vector(packetBytes) ETV
attr interpolationmode none
attr source decapPk
attr title "packets decapsulated, vector(packetBytes)"
vector 60 Red4Tcp.hC.eth[0].encap decapPk:vector(packetBytes) ETV
attr interpolationmode none
attr source decapPk
attr title "packets decapsulated, vector(packetBytes)"
vector 61 Red4Tcp.switch1.eth[0].mac packetReceivedFromUpper:vector(packetBytes) ETV
attr interpolationmode none
attr source packetReceivedFromUpper
attr title "packet bytes from higher layer, vector(packetBytes)"
vector 62 Red4Tcp.switch1.eth[0].mac.queue packetPushed:vector(packetBytes) ETV
attr interpolationmode none
attr title "packet pushed, vector(packetBytes)"
vector 63 Red4Tcp.switch1.eth[0].mac.queue queueLength:vector ETV
attr autoWarmupFilter false
attr interpolationmode sample-hold
attr source "warmup(count(packetPushed) - count(packetPulled) - count(packetRemoved) - count(packetDropped))"
attr title "queue length, vector"
attr type int
vector 64 Red4Tcp.switch1.eth[0].mac.queue packetPulled:vector(packetBytes) ETV
attr interpolationmode none
attr title "packet pulled, vector(packetBytes)"
vector 65 Red4Tcp.switch1.eth[0].mac.queue queueingTime:vector ETV
attr interpolationmode none
attr source queueingTime(packetPulled)
attr title "queueing times, vector"
attr unit s
vector 66 Red4Tcp.switch1.eth[1].mac packetReceivedFromUpper:vector(packetBytes) ETV
attr interpolationmode none
attr source packetReceivedFromUpper
attr title "packet bytes from higher layer, vector(packetBytes)"
vector 67 Red4Tcp.switch1.eth[1].mac.queue packetPushed:vector(packetBytes) ETV
attr interpolationmode none
attr title "packet pushed, vector(packetBytes)"
vector 68 Red4Tcp.switch1.eth[1].mac.queue queueLength:vector ETV
attr autoWarmupFilter false
attr interpolationmode sample-hold
attr source "warmup(count(packetPushed) - count(packetPulled) - count(packetRemoved) - count(packetDropped))"
attr title "queue length, vector"
attr type int
vector 69 Red4Tcp.switch1.eth[1].mac.queue packetPulled:vector(packetBytes) ETV
attr interpolationmode none
attr title "packet pulled, vector(packetBytes)"
vector 70 Red4Tcp.switch1.eth[1].mac.queue queueingTime:vector ETV
attr interpolationmode none
attr source queueingTime(packetPulled)
attr title "queueing times, vector"
attr unit s
vector 71 Red4Tcp.switch1.eth[0].mac txPk:vector(packetBytes) ETV
attr interpolationmode none
attr source packetSentToLower
attr title "packets transmitted, vector(packetBytes)"
vector 72 Red4Tcp.switch1.eth[1].mac txPk:vector(packetBytes) ETV
attr interpolationmode none
attr source packetSentToLower
attr title "packets transmitted, vector(packetBytes)"
vector 73 Red4Tcp.hD.ipv4.arp arpReplySent:vector(packetBytes) ETV
attr source arpReplySent
attr title "ARP replies sent, vector(packetBytes)"
vector 74 Red4Tcp.hA.eth[0].mac rxPkOk:vector(packetBytes) ETV
attr interpolationmode none
attr source rxPkOk
attr title "packets received OK, vector(packetBytes)"
vector 75 Red4Tcp.hA.eth[0].mac passedUpPk:vector(packetBytes) ETV
attr interpolationmode none
attr source packetSentToUpper
attr title "packets passed to higher layer, vector(packetBytes)"
vector 76 Red4Tcp.hB.eth[0].mac rxPkOk:vector(packetBytes) ETV
attr interpolationmode none
attr source rxPkOk
attr title "packets received OK, vector(packetBytes)"
vector 77 Red4Tcp.hB.eth[0].mac passedUpPk:vector(packetBytes) ETV
attr interpolationmode none
attr source packetSentToUpper
attr title "packets passed to higher layer, vector(packetBytes)"
vector 78 Red4Tcp.hA.eth[0].encap decapPk:vector(packetBytes) ETV
attr interpolationmode none
attr source decapPk
attr title "packets decapsulated, vector(packetBytes)"
vector 79 Red4Tcp.hB.eth[0].encap decapPk:vector(packetBytes) ETV
attr interpolationmode none
attr source decapPk
attr title "packets decapsulated, vector(packetBytes)"
vector 80 Red4Tcp.hB.ipv4.arp arpReplySent:vector(packetBytes) ETV
attr source arpReplySent
attr title "ARP replies sent, vector(packetBytes)"
vector 81 Red4Tcp.hB.eth[0].encap encapPk:vector(packetBytes) ETV
attr interpolationmode none
attr source encapPk
attr title "packets encapsulated, vector(packetBytes)"
vector 82 Red4Tcp.hB.eth[0].mac packetReceivedFromUpper:vector(packetBytes) ETV
attr interpolationmode none
attr source packetReceivedFromUpper
attr title "packet bytes from higher layer, vector(packetBytes)"
vector 83 Red4Tcp.hB.eth[0].mac.queue packetPushed:vector(packetBytes) ETV
attr interpolationmode none
attr title "packet pushed, vector(packetBytes)"
vector 84 Red4Tcp.hB.eth[0].mac.queue queueLength:vector ETV
attr autoWarmupFilter false
attr interpolationmode sample-hold
attr source "warmup(count(packetPushed) - count(packetPulled) - count(packetRemoved) - count(packetDropped))"
attr title "queue length, vector"
attr type int
vector 85 Red4Tcp.hB.eth[0].mac.queue packetPulled:vector(packetBytes) ETV
attr interpolationmode none
attr title "packet pulled, vector(packetBytes)"
vector 86 Red4Tcp.hB.eth[0].mac.queue queueingTime:vector ETV
attr interpolationmode none
attr source queueingTime(packetPulled)
attr title "queueing times, vector"
attr unit s
vector 87 Red4Tcp.hB.eth[0].mac txPk:vector(packetBytes) ETV
attr interpolationmode none
attr source packetSentToLower
attr title "packets transmitted, vector(packetBytes)"
vector 88 Red4Tcp.hA.ipv4.arp arpReplySent:vector(packetBytes) ETV
attr source arpReplySent
attr title "ARP replies sent, vector(packetBytes)"
vector 89 Red4Tcp.hA.eth[0].encap encapPk:vector(packetBytes) ETV
attr interpolationmode none
attr source encapPk
attr title "packets encapsulated, vector(packetBytes)"
vector 90 Red4Tcp.hA.eth[0].mac packetReceivedFromUpper:vector(packetBytes) ETV
attr interpolationmode none
attr source packetReceivedFromUpper
attr title "packet bytes from higher layer, vector(packetBytes)"
vector 91 Red4Tcp.hA.eth[0].mac.queue packetPushed:vector(packetBytes) ETV
attr interpolationmode none
attr title "packet pushed, vector(packetBytes)"
vector 92 Red4Tcp.hA.eth[0].mac.queue queueLength:vector ETV
attr autoWarmupFilter false
attr interpolationmode sample-hold
attr source "warmup(count(packetPushed) - count(packetPulled) - count(packetRemoved) - count(packetDropped))"
attr title "queue length, vector"
attr type int
vector 93 Red4Tcp.hA.eth[0].mac.queue packetPulled:vector(packetBytes) ETV
attr interpolationmode none
attr title "packet pulled, vector(packetBytes)"
vector 94 Red4Tcp.hA.eth[0].mac.queue queueingTime:vector ETV
attr interpolationmode none
attr source queueingTime(packetPulled)
attr title "queueing times, vector"
attr unit s
vector 95 Red4Tcp.hA.eth[0].mac txPk:vector(packetBytes) ETV
attr interpolationmode none
attr source packetSentToLower
attr title "packets transmitted, vector(packetBytes)"
vector 96 Red4Tcp.switch1.eth[1].mac rxPkOk:vector(packetBytes) ETV
attr interpolationmode none
attr source rxPkOk
attr title "packets received OK, vector(packetBytes)"
vector 97 Red4Tcp.switch1.eth[1].mac passedUpPk:vector(packetBytes) ETV
attr interpolationmode none
attr source packetSentToUpper
attr title "packets passed to higher layer, vector(packetBytes)"
vector 98 Red4Tcp.switch1.eth[2].mac packetReceivedFromUpper:vector(packetBytes) ETV
attr interpolationmode none
attr source packetReceivedFromUpper
attr title "packet bytes from higher layer, vector(packetBytes)"
vector 99 Red4Tcp.switch1.eth[2].mac.queue packetPushed:vector(packetBytes) ETV
attr interpolationmode none
attr title "packet pushed, vector(packetBytes)"
vector 100 Red4Tcp.switch1.eth[2].mac.queue queueLength:vector ETV
attr autoWarmupFilter false
attr interpolationmode sample-hold
attr source "warmup(count(packetPushed) - count(packetPulled) - count(packetRemoved) - count(packetDropped))"
attr title "queue length, vector"
attr type int
vector 101 Red4Tcp.switch1.eth[2].mac.queue packetPulled:vector(packetBytes) ETV
attr interpolationmode none
attr title "packet pulled, vector(packetBytes)"
vector 102 Red4Tcp.switch1.eth[2].mac.queue queueingTime:vector ETV
attr interpolationmode none
attr source queueingTime(packetPulled)
attr title "queueing times, vector"
attr unit s
vector 103 Red4Tcp.hD.tcp.conn-2 rcvSeq:vector ETV
attr interpolationmode sample-hold
vector 104 Red4Tcp.hD.tcp.conn-2 rcvAck:vector ETV
attr interpolationmode sample-hold
vector 105 Red4Tcp.hD.tcp.conn-2 tcpRcvPayloadBytes:vector ETV
attr interpolationmode sample-hold
vector 106 Red4Tcp.hD.tcp.conn-6 rcvAdv:vector ETV
attr interpolationmode sample-hold
vector 107 Red4Tcp.hD.tcp.conn-6 sndWnd:vector ETV
attr interpolationmode sample-hold
vector 108 Red4Tcp.hD.tcp.conn-6 tcpRcvQueueBytes:vector ETV
attr interpolationmode sample-hold
vector 109 Red4Tcp.hD.tcp.conn-6 rcvWnd:vector ETV
attr interpolationmode sample-hold
vector 110 Red4Tcp.hD.tcp.conn-6 sndAck:vector ETV
attr interpolationmode sample-hold
vector 111 Red4Tcp.switch1.eth[2].mac txPk:vector(packetBytes) ETV
attr interpolationmode none
attr source packetSentToLower
attr title "packets transmitted, vector(packetBytes)"
vector 112 Red4Tcp.switch1.eth[0].mac rxPkOk:vector(packetBytes) ETV
attr interpolationmode none
attr source rxPkOk
attr title "packets received OK, vector(packetBytes)"
vector 113 Red4Tcp.switch1.eth[0].mac passedUpPk:vector(packetBytes) ETV
attr interpolationmode none
attr source packetSentToUpper
attr title "packets passed to higher layer, vector(packetBytes)"
vector 114 Red4Tcp.switch2.eth[2].mac rxPkOk:vector(packetBytes) ETV
attr interpolationmode none
attr source rxPkOk
attr title "packets received OK, vector(packetBytes)"
vector 115 Red4Tcp.switch2.eth[2].mac passedUpPk:vector(packetBytes) ETV
attr interpolationmode none
attr source packetSentToUpper
attr title "packets passed to higher layer, vector(packetBytes)"
vector 116 Red4Tcp.hC.tcp.conn-4 rcvSeq:vector ETV
attr interpolationmode sample-hold
vector 117 Red4Tcp.hC.tcp.conn-4 rcvAck:vector ETV
attr interpolationmode sample-hold
vector 118 Red4Tcp.hC.tcp.conn-4 tcpRcvPayloadBytes:vector ETV
attr interpolationmode sample-hold
vector 119 Red4Tcp.hC.tcp.conn-4 sndWnd:vector ETV
attr interpolationmode sample-hold
vector 120 Red4Tcp.hC.tcp.conn-4 sndNxt:vector ETV
attr interpolationmode sample-hold
vector 121 Red4Tcp.hC.tcp.conn-4 unacked:vector ETV
attr interpolationmode sample-hold
vector 122 Red4Tcp.hD.tcp.conn-6 rcvSeq:vector ETV
attr interpolationmode sample-hold
vector 123 Red4Tcp.hD.tcp.conn-6 rcvAck:vector ETV
attr interpolationmode sample-hold
vector 124 Red4Tcp.hD.tcp.conn-6 tcpRcvPayloadBytes:vector ETV
attr interpolationmode sample-hold
vector 125 Red4Tcp.hD.tcp.conn-6 unacked:vector ETV
attr interpolationmode sample-hold
vector 126 Red4Tcp.hD.tcp.conn-6 cwnd:vector ETV
attr interpolationmode sample-hold
vector 127 Red4Tcp.hD.tcp.conn-6 ssthresh:vector ETV
attr interpolationmode sample-hold
vector 128 Red4Tcp.hD.tcp.conn-6 dupAcks:vector ETV
attr interpolationmode sample-hold
vector 129 Red4Tcp.hD.app[0].connection[0].source.provider[0] packetCreated:vector(packetBytes) ETV
attr interpolationmode none
attr title "packets created, vector(packetBytes)"
vector 130 Red4Tcp.hD.app[0].connection[0].source.provider[1] packetCreated:vector(packetBytes) ETV
attr interpolationmode none
attr title "packets created, vector(packetBytes)"
vector 131 Red4Tcp.hD.app[0].connection[0].sink.queue packetPushed:vector(packetBytes) ETV
attr interpolationmode none
attr title "packet pushed, vector(packetBytes)"
vector 132 Red4Tcp.hD.app[0].connection[0].sink.queue queueLength:vector ETV
attr autoWarmupFilter false
attr interpolationmode sample-hold
attr source "warmup(count(packetPushed) - count(packetPulled) - count(packetRemoved) - count(packetDropped))"
attr title "queue length, vector"
attr type int
vector 133 Red4Tcp.hD.app[0].connection[0].sink.queue packetPulled:vector(packetBytes) ETV
attr interpolationmode none
attr title "packet pulled, vector(packetBytes)"
vector 134 Red4Tcp.hD.app[0].connection[0].sink.queue queueingTime:vector ETV
attr interpolationmode none
attr source queueingTime(packetPulled)
attr title "queueing times, vector"
attr unit s
vector 135 Red4Tcp.hD.app[0].connection[0].sink.server packetServed:vector(packetBytes) ETV
attr interpolationmode none
attr title "packets served, vector(packetBytes)"
vector 136 Red4Tcp.hD.app[0].connection[0].sink.classifier packetPushed:vector(packetBytes) ETV
attr interpolationmode none
attr title "packets pushed, vector(packetBytes)"
vector 137 Red4Tcp.hD.app[0].connection[0].sink.tokenGenerator[1] tokensCreated:vector ETV
attr interpolationmode none
attr title "tokens created, vector"
vector 138 Red4Tcp.hD.app[0].connection[0].source.provider[1] packetPulled:vector(packetBytes) ETV
attr interpolationmode none
attr title "packets pulled, vector(packetBytes)"
vector 139 Red4Tcp.hD.app[0].connection[0].source.server[1] packetServed:vector(packetBytes) ETV
attr interpolationmode none
attr title "packets served, vector(packetBytes)"
vector 140 Red4Tcp.hD.tcp.conn-6 sndNxt:vector ETV
attr interpolationmode sample-hold
vector 141 Red4Tcp.hB.tcp.conn-1 rcvSeq:vector ETV
attr interpolationmode sample-hold
vector 142 Red4Tcp.hB.tcp.conn-1 rcvAck:vector ETV
attr interpolationmode sample-hold
vector 143 Red4Tcp.hB.tcp.conn-1 tcpRcvPayloadBytes:vector ETV
attr interpolationmode sample-hold
vector 144 Red4Tcp.hB.tcp.conn-7 rcvAdv:vector ETV
attr interpolationmode sample-hold
vector 145 Red4Tcp.hB.tcp.conn-7 sndWnd:vector ETV
attr interpolationmode sample-hold
vector 146 Red4Tcp.hB.tcp.conn-7 tcpRcvQueueBytes:vector ETV
attr interpolationmode sample-hold
vector 147 Red4Tcp.hB.tcp.conn-7 rcvWnd:vector ETV
attr interpolationmode sample-hold
vector 148 Red4Tcp.hB.tcp.conn-7 sndAck:vector ETV
attr interpolationmode sample-hold
vector 149 Red4Tcp.hA.tcp.conn-0 rcvSeq:vector ETV
attr interpolationmode sample-hold
vector 150 Red4Tcp.hA.tcp.conn-0 rcvAck:vector ETV
attr interpolationmode sample-hold
vector 151 Red4Tcp.hA.tcp.conn-0 tcpRcvPayloadBytes:vector ETV
attr interpolationmode sample-hold
vector 152 Red4Tcp.hA.tcp.conn-8 rcvAdv:vector ETV
attr interpolationmode sample-hold
vector 153 Red4Tcp.hA.tcp.conn-8 sndWnd:vector ETV
attr interpolationmode sample-hold
vector 154 Red4Tcp.hA.tcp.conn-8 tcpRcvQueueBytes:vector ETV
attr interpolationmode sample-hold
vector 155 Red4Tcp.hA.tcp.conn-8 rcvWnd:vector ETV
attr interpolationmode sample-hold
vector 156 Red4Tcp.hA.tcp.conn-8 sndAck:vector ETV
attr interpolationmode sample-hold
vector 157 Red4Tcp.hC.tcp.conn-4 rtt:vector ETV
attr interpolationmode sample-hold
vector 158 Red4Tcp.hC.tcp.conn-4 srtt:vector ETV
attr interpolationmode sample-hold
vector 159 Red4Tcp.hC.tcp.conn-4 rttvar:vector ETV
attr interpolationmode sample-hold
vector 160 Red4Tcp.hC.tcp.conn-4 rto:vector ETV
attr interpolationmode sample-hold
vector 161 Red4Tcp.hC.tcp.conn-4 cwnd:vector ETV
attr interpolationmode sample-hold
vector 162 Red4Tcp.hC.tcp.conn-4 ssthresh:vector ETV
attr interpolationmode sample-hold
vector 163 Red4Tcp.hC.tcp.conn-4 dupAcks:vector ETV
attr interpolationmode sample-hold
vector 164 Red4Tcp.hC.app[1].sink packetPushed:vector(packetBytes) ETV
attr interpolationmode none
attr title "packets pushed, vector(packetBytes)"
vector 165 Red4Tcp.hC.app[1].sink packetDropped:vector(packetBytes) ETV
attr interpolationmode none
attr title "packets dropped, vector(packetBytes)"
vector 166 Red4Tcp.hC.tcp.conn-3 rcvSeq:vector ETV
attr interpolationmode sample-hold
vector 167 Red4Tcp.hC.tcp.conn-3 rcvAck:vector ETV
attr interpolationmode sample-hold
vector 168 Red4Tcp.hC.tcp.conn-3 tcpRcvPayloadBytes:vector ETV
attr interpolationmode sample-hold
vector 169 Red4Tcp.hC.tcp.conn-3 sndWnd:vector ETV
attr interpolationmode sample-hold
vector 170 Red4Tcp.hC.tcp.conn-3 sndNxt:vector ETV
attr interpolationmode sample-hold
vector 171 Red4Tcp.hC.tcp.conn-3 unacked:vector ETV
attr interpolationmode sample-hold
vector 172 Red4Tcp.hD.tcp.conn-5 rcvSeq:vector ETV
attr interpolationmode sample-hold
vector 173 Red4Tcp.hD.tcp.conn-5 rcvAck:vector ETV
attr interpolationmode sample-hold
vector 174 Red4Tcp.hD.tcp.conn-5 tcpRcvPayloadBytes:vector ETV
attr interpolationmode sample-hold
vector 175 Red4Tcp.hD.tcp.conn-5 sndWnd:vector ETV
attr interpolationmode sample-hold
vector 176 Red4Tcp.hD.tcp.conn-5 sndNxt:vector ETV
attr interpolationmode sample-hold
vector 177 Red4Tcp.hD.tcp.conn-5 unacked:vector ETV
attr interpolationmode sample-hold
vector 178 Red4Tcp.hD.tcp.conn-6 rtt:vector ETV
attr interpolationmode sample-hold
vector 179 Red4Tcp.hD.tcp.conn-6 srtt:vector ETV
attr interpolationmode sample-hold
vector 180 Red4Tcp.hD.tcp.conn-6 rttvar:vector ETV
attr interpolationmode sample-hold
vector 181 Red4Tcp.hD.tcp.conn-6 rto:vector ETV
attr interpolationmode sample-hold
vector 182 Red4Tcp.hB.tcp.conn-7 rcvSeq:vector ETV
attr interpolationmode sample-hold
vector 183 Red4Tcp.hB.tcp.conn-7 rcvAck:vector ETV
attr interpolationmode sample-hold
vector 184 Red4Tcp.hB.tcp.conn-7 tcpRcvPayloadBytes:vector ETV
attr interpolationmode sample-hold
vector 185 Red4Tcp.hB.tcp.conn-7 unacked:vector ETV
attr interpolationmode sample-hold
vector 186 Red4Tcp.hB.tcp.conn-7 cwnd:vector ETV
attr interpolationmode sample-hold
vector 187 Red4Tcp.hB.tcp.conn-7 ssthresh:vector ETV
attr interpolationmode sample-hold
vector 188 Red4Tcp.hB.tcp.conn-7 dupAcks:vector ETV
attr interpolationmode sample-hold
vector 189 Red4Tcp.hB.app[0].connection[0].source.provider[0] packetCreated:vector(packetBytes) ETV
attr interpolationmode none
attr title "packets created, vector(packetBytes)"
vector 190 Red4Tcp.hB.app[0].connection[0].source.provider[1] packetCreated:vector(packetBytes) ETV
attr interpolationmode none
attr title "packets created, vector(packetBytes)"
vector 191 Red4Tcp.hB.app[0].connection[0].sink.queue packetPushed:vector(packetBytes) ETV
attr interpolationmode none
attr title "packet pushed, vector(packetBytes)"
vector 192 Red4Tcp.hB.app[0].connection[0].sink.queue queueLength:vector ETV
attr autoWarmupFilter false
attr interpolationmode sample-hold
attr source "warmup(count(packetPushed) - count(packetPulled) - count(packetRemoved) - count(packetDropped))"
attr title "queue length, vector"
attr type int
vector 193 Red4Tcp.hB.app[0].connection[0].sink.queue packetPulled:vector(packetBytes) ETV
attr interpolationmode none
attr title "packet pulled, vector(packetBytes)"
vector 194 Red4Tcp.hB.app[0].connection[0].sink.queue queueingTime:vector ETV
attr interpolationmode none
attr source queueingTime(packetPulled)
attr title "queueing times, vector"
attr unit s
vector 195 Red4Tcp.hB.app[0].connection[0].sink.server packetServed:vector(packetBytes) ETV
attr interpolationmode none
attr title "packets served, vector(packetBytes)"
vector 196 Red4Tcp.hB.app[0].connection[0].sink.classifier packetPushed:vector(packetBytes) ETV
attr interpolationmode none
attr title "packets pushed, vector(packetBytes)"
vector 197 Red4Tcp.hB.app[0].connection[0].sink.tokenGenerator[1] tokensCreated:vector ETV
attr interpolationmode none
attr title "tokens created, vector"
vector 198 Red4Tcp.hB.app[0].connection[0].source.provider[1] packetPulled:vector(packetBytes) ETV
attr interpolationmode none
attr title "packets pulled, vector(packetBytes)"
vector 199 Red4Tcp.hB.app[0].connection[0].source.server[1] packetServed:vector(packetBytes) ETV
attr interpolationmode none
attr title "packets served, vector(packetBytes)"
vector 200 Red4Tcp.hB.tcp.conn-7 sndNxt:vector ETV
attr interpolationmode sample-hold
vector 201 Red4Tcp.hA.tcp.conn-8 rcvSeq:vector ETV
attr interpolationmode sample-hold
vector 202 Red4Tcp.hA.tcp.conn-8 rcvAck:vector ETV
attr interpolationmode sample-hold
vector 203 Red4Tcp.hA.tcp.conn-8 tcpRcvPayloadBytes:vector ETV
attr interpolationmode sample-hold
vector 204 Red4Tcp.hA.tcp.conn-8 unacked:vector ETV
attr interpolationmode sample-hold
vector 205 Red4Tcp.hA.tcp.conn-8 cwnd:vector ETV
attr interpolationmode sample-hold
vector 206 Red4Tcp.hA.tcp.conn-8 ssthresh:vector ETV
attr interpolationmode sample-hold
vector 207 Red4Tcp.hA.tcp.conn-8 dupAcks:vector ETV
attr interpolationmode sample-hold
vector 208 Red4Tcp.hA.app[0].connection[0].source.provider[0] packetCreated:vector(packetBytes) ETV
attr interpolationmode none
attr title "packets created, vector(packetBytes)"
vector 209 Red4Tcp.hA.app[0].connection[0].source.provider[1] packetCreated:vector(packetBytes) ETV
attr interpolationmode none
attr title "packets created, vector(packetBytes)"
vector 210 Red4Tcp.hA.app[0].connection[0].sink.queue packetPushed:vector(packetBytes) ETV
attr interpolationmode none
attr title "packet pushed, vector(packetBytes)"
vector 211 Red4Tcp.hA.app[0].connection[0].sink.queue queueLength:vector ETV
attr autoWarmupFilter false
attr interpolationmode sample-hold
attr source "warmup(count(packetPushed) - count(packetPulled) - count(packetRemoved) - count(packetDropped))"
attr title "queue length, vector"
attr type int
vector 212 Red4Tcp.hA.app[0].connection[0].sink.queue packetPulled:vector(packetBytes) ETV
attr interpolationmode none
attr title "packet pulled, vector(packetBytes)"
vector 213 Red4Tcp.hA.app[0].connection[0].sink.queue queueingTime:vector ETV
attr interpolationmode none
attr source queueingTime(packetPulled)
attr title "queueing times, vector"
attr unit s
vector 214 Red4Tcp.hA.app[0].connection[0].sink.server packetServed:vector(packetBytes) ETV
attr interpolationmode none
attr title "packets served, vector(packetBytes)"
vector 215 Red4Tcp.hA.app[0].connection[0].sink.classifier packetPushed:vector(packetBytes) ETV
attr interpolationmode none
attr title "packets pushed, vector(packetBytes)"
vector 216 Red4Tcp.hA.app[0].connection[0].sink.tokenGenerator[1] tokensCreated:vector ETV
attr interpolationmode none
attr title "tokens created, vector"
vector 217 Red4Tcp.hA.app[0].connection[0].source.provider[1] packetPulled:vector(packetBytes) ETV
attr interpolationmode none
attr title "packets pulled, vector(packetBytes)"
vector 218 Red4Tcp.hA.app[0].connection[0].source.server[1] packetServed:vector(packetBytes) ETV
attr interpolationmode none
attr title "packets served, vector(packetBytes)"
vector 219 Red4Tcp.hA.tcp.conn-8 sndNxt:vector ETV
attr interpolationmode sample-hold
vector 220 Red4Tcp.hC.tcp.conn-3 rtt:vector ETV
attr interpolationmode sample-hold
vector 221 Red4Tcp.hC.tcp.conn-3 srtt:vector ETV
attr interpolationmode sample-hold
vector 222 Red4Tcp.hC.tcp.conn-3 rttvar:vector ETV
attr interpolationmode sample-hold
vector 223 Red4Tcp.hC.tcp.conn-3 rto:vector ETV
attr interpolationmode sample-hold
vector 224 Red4Tcp.hC.tcp.conn-3 cwnd:vector ETV
attr interpolationmode sample-hold
vector 225 Red4Tcp.hC.tcp.conn-3 ssthresh:vector ETV
attr interpolationmode sample-hold
vector 226 Red4Tcp.hC.tcp.conn-3 dupAcks:vector ETV
attr interpolationmode sample-hold
vector 227 Red4Tcp.hD.tcp.conn-5 rtt:vector ETV
attr interpolationmode sample-hold
vector 228 Red4Tcp.hD.tcp.conn-5 srtt:vector ETV
attr interpolationmode sample-hold
vector 229 Red4Tcp.hD.tcp.conn-5 rttvar:vector ETV
attr interpolationmode sample-hold
vector 230 Red4Tcp.hD.tcp.conn-5 rto:vector ETV
attr interpolationmode sample-hold
vector 231 Red4Tcp.hD.tcp.conn-5 cwnd:vector ETV
attr interpolationmode sample-hold
vector 232 Red4Tcp.hD.tcp.conn-5 ssthresh:vector ETV
attr interpolationmode sample-hold
vector 233 Red4Tcp.hD.tcp.conn-5 dupAcks:vector ETV
attr interpolationmode sample-hold
vector 234 Red4Tcp.hC.app[0].sink packetPushed:vector(packetBytes) ETV
attr interpolationmode none
attr title "packets pushed, vector(packetBytes)"
vector 235 Red4Tcp.hC.app[0].sink packetDropped:vector(packetBytes) ETV
attr interpolationmode none
attr title "packets dropped, vector(packetBytes)"
vector 236 Red4Tcp.hD.app[1].sink packetPushed:vector(packetBytes) ETV
attr interpolationmode none
attr title "packets pushed, vector(packetBytes)"
vector 237 Red4Tcp.hD.app[1].sink packetDropped:vector(packetBytes) ETV
attr interpolationmode none
attr title "packets dropped, vector(packetBytes)"
vector 238 Red4Tcp.hB.tcp.conn-7 rtt:vector ETV
attr interpolationmode sample-hold
vector 239 Red4Tcp.hB.tcp.conn-7 srtt:vector ETV
attr interpolationmode sample-hold
vector 240 Red4Tcp.hB.tcp.conn-7 rttvar:vector ETV
attr interpolationmode sample-hold
vector 241 Red4Tcp.hB.tcp.conn-7 rto:vector ETV
attr interpolationmode sample-hold
vector 242 Red4Tcp.hA.tcp.conn-8 rtt:vector ETV
attr interpolationmode sample-hold
vector 243 Red4Tcp.hA.tcp.conn-8 srtt:vector ETV
attr interpolationmode sample-hold
vector 244 Red4Tcp.hA.tcp.conn-8 rttvar:vector ETV
attr interpolationmode sample-hold
vector 245 Red4Tcp.hA.tcp.conn-8 rto:vector ETV
attr interpolationmode sample-hold
0	0	0	147
0	1659	0.0010097627	177
1	0	0	167
1	1737	0.001068853149	120
2	0	0	109
2	1651	0.001008976635	181
3	7	0	0
3	334	0.0000121728	0
3	682	0.0000186786	0
3	682	0.0000186786	0
3	706	0.0000189242	0
3	706	0.0000189242	0
3	1050	0.000025083	0
3	1050	0.000025083	0
3	1061	0.0000252058	0
3	1061	0.0000252058	0
3	1094	0.0000255742	0
3	1094	0.0000255742	0
3	1105	0.000025697	0
3	1105	0.000025697	0
3	1389	0.0000314874	0
3	1389	0.0000314874	0
3	1400	0.0000316102	0
3	1400	0.0000316102	0
3	1411	0.000031733	0
3	1411	0.000031733	0
3	1422	0.0000318558	0
3	1422	0.0000318558	0
3	1433	0.0000319786	0
3	1433	0.0000319786	0
3	1444	0.0000321014	0
3	1444	0.0000321014	0
3	1455	0.0000322242	0
3	1455	0.0000322242	0
3	1477	0.0000324392	0
3	1477	0.0000324392	0
3	1629	0.000038666	0
3	1629	0.000038666	0
3	1661	0.0010097627	0
4	7	0	7504
4	334	0.0000121728	7507
4	334	0.0000121728	7507
4	682	0.0000186786	8043
4	706	0.0000189242	8579
4	1050	0.000025083	9115
4	1061	0.0000252058	9651
4	1094	0.0000255742	10187
4	1105	0.000025697	10723
4	1389	0.0000314874	11259
4	1400	0.0000316102	11795
4	1411	0.000031733	12331
4	1422	0.0000318558	12867
4	1433	0.0000319786	13403
4	1444	0.0000321014	13939
4	1455	0.0000322242	14475
4	1477	0.0000324392	15011
4	1629	0.000038666	15251
4	1661	0.0010097627	15251
5	7	0	7504
5	334	0.0000121728	7504
5	682	0.0000186786	7504
5	706	0.0000189242	7504
5	1050	0.000025083	7504
5	1061	0.0000252058	7504
5	1094	0.0000255742	7504
5	1105	0.000025697	7504
5	1389	0.0000314874	7504
5	1400	0.0000316102	7504
5	1411	0.000031733	7504
5	1422	0.0000318558	7504
5	1433	0.0000319786	7504
5	1444	0.0000321014	7504
5	1455	0.0000322242	7504
5	1477	0.0000324392	7504
5	1629	0.000038666	7504
5	1661	0.0010097627	7504
6	7	0	0
6	334	0.0000121728	3
6	682	0.0000186786	539
6	706	0.0000189242	1075
6	1050	0.000025083	1611
6	1061	0.0000252058	2147
6	1094	0.0000255742	2683
6	1105	0.000025697	3219
6	1389	0.0000314874	3755
6	1400	0.0000316102	4291
6	1411	0.000031733	4827
6	1422	0.0000318558	5363
6	1433	0.0000319786	5899
6	1444	0.0000321014	6435
6	1455	0.0000322242	6971
6	1477	0.0000324392	7507
6	1629	0.000038666	7747
6	1661	0.0010097627	7747
7	9	0	0
7	179	0.0000061032	0
7	291	0.000010454	0
7	291	0.000010454	0
7	303	0.0000105768	0
7	303	0.0000105768	0
7	422	0.0000147236	0
7	422	0.0000147236	0
7	433	0.0000148464	0
7	433	0.0000148464	0
7	444	0.0000149692	0
7	444	0.0000149692	0
7	455	0.000015092	0
7	455	0.000015092	0
7	720	0.000019047	0
7	720	0.000019047	0
7	739	0.0000191698	0
7	739	0.0000191698	0
7	750	0.0000192926	0
7	750	0.0000192926	0
7	761	0.0000194154	0
7	761	0.0000194154	0
7	772	0.0000195382	0
7	772	0.0000195382	0
7	783	0.000019661	0
7	783	0.000019661	0
7	994	0.000023893	0
7	994	0.000023893	0
7	1739	0.001068853149	0
8	9	0	7504
8	179	0.0000061032	7506
8	179	0.0000061032	7506
8	291	0.000010454	8042
8	303	0.0000105768	8578
8	422	0.0000147236	9114
8	433	0.0000148464	9650
8	444	0.0000149692	10186
8	455	0.000015092	10722
8	720	0.000019047	11258
8	739	0.0000191698	11794
8	750	0.0000192926	12330
8	761	0.0000194154	12866
8	772	0.0000195382	13402
8	783	0.000019661	13938
8	994	0.000023893	14380
8	1739	0.001068853149	14380
9	9	0	7504
9	179	0.0000061032	7504
9	291	0.000010454	7504
9	303	0.0000105768	7504
9	422	0.0000147236	7504
9	433	0.0000148464	7504
9	444	0.0000149692	7504
9	455	0.000015092	7504
9	720	0.000019047	7504
9	739	0.0000191698	7504
9	750	0.0000192926	7504
9	761	0.0000194154	7504
9	772	0.0000195382	7504
9	783	0.000019661	7504
9	994	0.000023893	7504
9	1739	0.001068853149	7504
10	9	0	0
10	179	0.0000061032	2
10	291	0.000010454	538
10	303	0.0000105768	1074
10	422	0.0000147236	1610
10	433	0.0000148464	2146
10	444	0.0000149692	2682
10	455	0.000015092	3218
10	720	0.000019047	3754
10	739	0.0000191698	4290
10	750	0.0000192926	4826
10	761	0.0000194154	5362
10	772	0.0000195382	5898
10	783	0.000019661	6434
10	994	0.000023893	6876
10	1739	0.001068853149	6876
11	11	0	0
11	342	0.0000121896	0
11	694	0.0000188014	0
11	694	0.0000188014	0
11	721	0.000019047	0
11	721	0.000019047	0
11	1072	0.0000253286	0
11	1072	0.0000253286	0
11	1083	0.0000254514	0
11	1083	0.0000254514	0
11	1116	0.0000258198	0
11	1116	0.0000258198	0
11	1127	0.0000259426	0
11	1127	0.0000259426	0
11	1466	0.0000322858	0
11	1466	0.0000322858	0
11	1653	0.001008976635	0
12	11	0	7504
12	342	0.0000121896	7507
12	342	0.0000121896	7507
12	694	0.0000188014	8043
12	721	0.000019047	8579
12	1072	0.0000253286	9115
12	1083	0.0000254514	9651
12	1116	0.0000258198	10187
12	1127	0.0000259426	10723
12	1466	0.0000322858	11106
12	1653	0.001008976635	11106
13	11	0	7504
13	342	0.0000121896	7504
13	694	0.0000188014	7504
13	721	0.000019047	7504
13	1072	0.0000253286	7504
13	1083	0.0000254514	7504
13	1116	0.0000258198	7504
13	1127	0.0000259426	7504
13	1466	0.0000322858	7504
13	1653	0.001008976635	7504
14	11	0	0
14	342	0.0000121896	3
14	694	0.0000188014	539
14	721	0.000019047	1075
14	1072	0.0000253286	1611
14	1083	0.0000254514	2147
14	1116	0.0000258198	2683
14	1127	0.0000259426	3219
14	1466	0.0000322858	3602
14	1653	0.001008976635	3602
15	13	0	28
15	14	0	28
16	15	0	28
17	16	0	28
17	17	0	28
17	62	0.0000020288	44
17	169	0.0000060864	44
17	184	0.0000061032	207
17	295	0.000010454	40
17	307	0.0000105768	40
17	337	0.0000121728	187
17	426	0.0000147236	40
17	437	0.0000148464	40
17	448	0.0000149692	40
17	459	0.000015092	40
17	686	0.0000186786	40
17	710	0.0000189242	40
17	727	0.000019047	40
17	743	0.0000191698	40
17	754	0.0000192926	40
17	765	0.0000194154	40
17	776	0.0000195382	40
17	787	0.000019661	40
17	998	0.000023893	40
17	1054	0.000025083	40
17	1065	0.0000252058	40
17	1098	0.0000255742	40
17	1109	0.000025697	40
17	1393	0.0000314874	40
17	1404	0.0000316102	40
17	1415	0.000031733	40
17	1426	0.0000318558	40
17	1437	0.0000319786	40
17	1448	0.0000321014	40
17	1459	0.0000322242	40
17	1481	0.0000324392	40
17	1633	0.000038666	40
17	1663	0.0010097627	217
17	1741	0.001068853149	160
18	18	0	28
18	77	0.0000020456	28
18	137	0.0000040576	44
18	180	0.0000061032	44
18	222	0.0000081964	40
18	231	0.0000081964	576
18	232	0.0000081964	576
18	345	0.0000121896	149
18	357	0.0000124828	576
18	358	0.0000124828	576
18	369	0.0000126056	576
18	370	0.0000126056	576
18	567	0.0000167524	576
18	568	0.0000167524	576
18	581	0.0000168752	576
18	582	0.0000168752	576
18	595	0.000016998	576
18	596	0.000016998	576
18	698	0.0000188014	40
18	729	0.000019047	40
18	886	0.0000216898	482
18	1076	0.0000253286	40
18	1087	0.0000254514	40
18	1120	0.0000258198	40
18	1131	0.0000259426	40
18	1470	0.0000322858	40
18	1655	0.001008976635	221
19	19	0	46
19	20	0	46
19	63	0.0000020288	62
19	170	0.0000060864	62
19	185	0.0000061032	225
19	297	0.000010454	58
19	308	0.0000105768	58
19	338	0.0000121728	205
19	427	0.0000147236	58
19	438	0.0000148464	58
19	449	0.0000149692	58
19	460	0.000015092	58
19	688	0.0000186786	58
19	711	0.0000189242	58
19	730	0.000019047	58
19	744	0.0000191698	58
19	755	0.0000192926	58
19	766	0.0000194154	58
19	777	0.0000195382	58
19	788	0.000019661	58
19	999	0.000023893	58
19	1055	0.000025083	58
19	1066	0.0000252058	58
19	1099	0.0000255742	58
19	1110	0.000025697	58
19	1394	0.0000314874	58
19	1405	0.0000316102	58
19	1416	0.000031733	58
19	1427	0.0000318558	58
19	1438	0.0000319786	58
19	1449	0.0000321014	58
19	1460	0.0000322242	58
19	1482	0.0000324392	58
19	1634	0.000038666	58
19	1664	0.0010097627	235
20	19	0	46
20	20	0	46
20	63	0.0000020288	62
20	170	0.0000060864	62
20	185	0.0000061032	225
20	297	0.000010454	58
20	308	0.0000105768	58
20	338	0.0000121728	205
20	427	0.0000147236	58
20	438	0.0000148464	58
20	449	0.0000149692	58
20	460	0.000015092	58
20	688	0.0000186786	58
20	711	0.0000189242	58
20	730	0.000019047	58
20	744	0.0000191698	58
20	755	0.0000192926	58
20	766	0.0000194154	58
20	777	0.0000195382	58
20	788	0.000019661	58
20	999	0.000023893	58
20	1055	0.000025083	58
20	1066	0.0000252058	58
20	1099	0.0000255742	58
20	1110	0.000025697	58
20	1394	0.0000314874	58
20	1405	0.0000316102	58
20	1416	0.000031733	58
20	1427	0.0000318558	58
20	1438	0.0000319786	58
20	1449	0.0000321014	58
20	1460	0.0000322242	58
20	1482	0.0000324392	58
20	1634	0.000038666	58
20	1664	0.0010097627	235
21	19	0	1
21	19	0	0
21	20	0	1
21	24	0.0000000168	0
21	63	0.0000020288	1
21	63	0.0000020288	0
21	170	0.0000060864	1
21	170	0.0000060864	0
21	185	0.0000061032	1
21	185	0.0000061032	0
21	297	0.000010454	1
21	297	0.000010454	0
21	308	0.0000105768	1
21	308	0.0000105768	0
21	338	0.0000121728	1
21	338	0.0000121728	0
21	427	0.0000147236	1
21	427	0.0000147236	0
21	438	0.0000148464	1
21	438	0.0000148464	0
21	449	0.0000149692	1
21	449	0.0000149692	0
21	460	0.000015092	1
21	460	0.000015092	0
21	688	0.0000186786	1
21	688	0.0000186786	0
21	711	0.0000189242	1
21	711	0.0000189242	0
21	730	0.000019047	1
21	730	0.000019047	0
21	744	0.0000191698	1
21	744	0.0000191698	0
21	755	0.0000192926	1
21	755	0.0000192926	0
21	766	0.0000194154	1
21	766	0.0000194154	0
21	777	0.0000195382	1
21	777	0.0000195382	0
21	788	0.000019661	1
21	788	0.000019661	0
21	999	0.000023893	1
21	999	0.000023893	0
21	1055	0.000025083	1
21	1055	0.000025083	0
21	1066	0.0000252058	1
21	1066	0.0000252058	0
21	1099	0.0000255742	1
21	1099	0.0000255742	0
21	1110	0.000025697	1
21	1110	0.000025697	0
21	1394	0.0000314874	1
21	1394	0.0000314874	0
21	1405	0.0000316102	1
21	1405	0.0000316102	0
21	1416	0.000031733	1
21	1416	0.000031733	0
21	1427	0.0000318558	1
21	1427	0.0000318558	0
21	1438	0.0000319786	1
21	1438	0.0000319786	0
21	1449	0.0000321014	1
21	1449	0.0000321014	0
21	1460	0.0000322242	1
21	1460	0.0000322242	0
21	1482	0.0000324392	1
21	1482	0.0000324392	0
21	1634	0.000038666	1
21	1634	0.000038666	0
21	1664	0.0010097627	1
21	1664	0.0010097627	0
22	19	0	46
22	24	0.0000000168	46
22	63	0.0000020288	62
22	170	0.0000060864	62
22	185	0.0000061032	225
22	297	0.000010454	58
22	308	0.0000105768	58
22	338	0.0000121728	205
22	427	0.0000147236	58
22	438	0.0000148464	58
22	449	0.0000149692	58
22	460	0.000015092	58
22	688	0.0000186786	58
22	711	0.0000189242	58
22	730	0.000019047	58
22	744	0.0000191698	58
22	755	0.0000192926	58
22	766	0.0000194154	58
22	777	0.0000195382	58
22	788	0.000019661	58
22	999	0.000023893	58
22	1055	0.000025083	58
22	1066	0.0000252058	58
22	1099	0.0000255742	58
22	1110	0.000025697	58
22	1394	0.0000314874	58
22	1405	0.0000316102	58
22	1416	0.000031733	58
22	1427	0.0000318558	58
22	1438	0.0000319786	58
22	1449	0.0000321014	58
22	1460	0.0000322242	58
22	1482	0.0000324392	58
22	1634	0.000038666	58
22	1664	0.0010097627	235
23	19	0	0
23	24	0.0000000168	1.68e-08
23	63	0.0000020288	0
23	170	0.0000060864	0
23	185	0.0000061032	0
23	297	0.000010454	0
23	308	0.0000105768	0
23	338	0.0000121728	0
23	427	0.0000147236	0
23	438	0.0000148464	0
23	449	0.0000149692	0
23	460	0.000015092	0
23	688	0.0000186786	0
23	711	0.0000189242	0
23	730	0.000019047	0
23	744	0.0000191698	0
23	755	0.0000192926	0
23	766	0.0000194154	0
23	777	0.0000195382	0
23	788	0.000019661	0
23	999	0.000023893	0
23	1055	0.000025083	0
23	1066	0.0000252058	0
23	1099	0.0000255742	0
23	1110	0.000025697	0
23	1394	0.0000314874	0
23	1405	0.0000316102	0
23	1416	0.000031733	0
23	1427	0.0000318558	0
23	1438	0.0000319786	0
23	1449	0.0000321014	0
23	1460	0.0000322242	0
23	1482	0.0000324392	0
23	1634	0.000038666	0
23	1664	0.0010097627	0
24	21	0	46
24	78	0.0000020456	46
24	138	0.0000040576	62
24	183	0.0000061032	62
24	225	0.0000081964	58
24	233	0.0000081964	594
24	234	0.0000081964	594
24	346	0.0000121896	167
24	359	0.0000124828	594
24	360	0.0000124828	594
24	371	0.0000126056	594
24	372	0.0000126056	594
24	569	0.0000167524	594
24	570	0.0000167524	594
24	583	0.0000168752	594
24	584	0.0000168752	594
24	597	0.000016998	594
24	598	0.000016998	594
24	700	0.0000188014	58
24	731	0.000019047	58
24	887	0.0000216898	500
24	1077	0.0000253286	58
24	1088	0.0000254514	58
24	1121	0.0000258198	58
24	1132	0.0000259426	58
24	1471	0.0000322858	58
24	1656	0.001008976635	239
25	21	0	46
25	78	0.0000020456	46
25	138	0.0000040576	62
25	183	0.0000061032	62
25	225	0.0000081964	58
25	233	0.0000081964	594
25	234	0.0000081964	594
25	346	0.0000121896	167
25	359	0.0000124828	594
25	360	0.0000124828	594
25	371	0.0000126056	594
25	372	0.0000126056	594
25	569	0.0000167524	594
25	570	0.0000167524	594
25	583	0.0000168752	594
25	584	0.0000168752	594
25	597	0.000016998	594
25	598	0.000016998	594
25	700	0.0000188014	58
25	731	0.000019047	58
25	887	0.0000216898	500
25	1077	0.0000253286	58
25	1088	0.0000254514	58
25	1121	0.0000258198	58
25	1132	0.0000259426	58
25	1471	0.0000322858	58
25	1656	0.001008976635	239
26	21	0	1
26	21	0	0
26	78	0.0000020456	1
26	78	0.0000020456	0
26	138	0.0000040576	1
26	138	0.0000040576	0
26	183	0.0000061032	1
26	183	0.0000061032	0
26	225	0.0000081964	1
26	225	0.0000081964	0
26	233	0.0000081964	1
26	234	0.0000081964	2
26	236	0.0000082132	1
26	238	0.000008336	0
26	346	0.0000121896	1
26	346	0.0000121896	0
26	359	0.0000124828	1
26	359	0.0000124828	0
26	360	0.0000124828	1
26	363	0.0000126056	0
26	371	0.0000126056	1
26	372	0.0000126056	2
26	374	0.0000127284	1
26	376	0.0000128512	0
26	569	0.0000167524	1
26	569	0.0000167524	0
26	570	0.0000167524	1
26	575	0.0000168752	0
26	583	0.0000168752	1
26	584	0.0000168752	2
26	589	0.000016998	1
26	597	0.000016998	2
26	598	0.000016998	3
26	601	0.0000171208	2
26	606	0.0000172436	1
26	616	0.0000173664	0
26	700	0.0000188014	1
26	700	0.0000188014	0
26	731	0.000019047	1
26	731	0.000019047	0
26	887	0.0000216898	1
26	887	0.0000216898	0
26	1077	0.0000253286	1
26	1077	0.0000253286	0
26	1088	0.0000254514	1
26	1088	0.0000254514	0
26	1121	0.0000258198	1
26	1121	0.0000258198	0
26	1132	0.0000259426	1
26	1132	0.0000259426	0
26	1471	0.0000322858	1
26	1471	0.0000322858	0
26	1656	0.001008976635	1
26	1656	0.001008976635	0
27	21	0	46
27	78	0.0000020456	46
27	138	0.0000040576	62
27	183	0.0000061032	62
27	225	0.0000081964	58
27	236	0.0000082132	594
27	238	0.000008336	594
27	346	0.0000121896	167
27	359	0.0000124828	594
27	363	0.0000126056	594
27	374	0.0000127284	594
27	376	0.0000128512	594
27	569	0.0000167524	594
27	575	0.0000168752	594
27	589	0.000016998	594
27	601	0.0000171208	594
27	606	0.0000172436	594
27	616	0.0000173664	594
27	700	0.0000188014	58
27	731	0.000019047	58
27	887	0.0000216898	500
27	1077	0.0000253286	58
27	1088	0.0000254514	58
27	1121	0.0000258198	58
27	1132	0.0000259426	58
27	1471	0.0000322858	58
27	1656	0.001008976635	239
28	21	0	0
28	78	0.0000020456	0
28	138	0.0000040576	0
28	183	0.0000061032	0
28	225	0.0000081964	0
28	236	0.0000082132	1.68e-08
28	238	0.000008336	1.396e-07
28	346	0.0000121896	0
28	359	0.0000124828	0
28	363	0.0000126056	1.228e-07
28	374	0.0000127284	1.228e-07
28	376	0.0000128512	2.456e-07
28	569	0.0000167524	0
28	575	0.0000168752	1.228e-07
28	589	0.000016998	1.228e-07
28	601	0.0000171208	2.456e-07
28	606	0.0000172436	2.456e-07
28	616	0.0000173664	3.684e-07
28	700	0.0000188014	0
28	731	0.000019047	0
28	887	0.0000216898	0
28	1077	0.0000253286	0
28	1088	0.0000254514	0
28	1121	0.0000258198	0
28	1132	0.0000259426	0
28	1471	0.0000322858	0
28	1656	0.001008976635	0
29	22	0.0000000144	64
29	26	0.0000000312	64
29	66	0.0000020432	64
29	171	0.0000061008	64
29	188	0.0000061498	225
29	298	0.0000104684	64
29	309	0.0000105912	64
29	347	0.0000122154	205
29	428	0.000014738	64
29	439	0.0000148608	64
29	450	0.0000149836	64
29	461	0.0000151064	64
29	689	0.000018693	64
29	712	0.0000189386	64
29	732	0.0000190614	64
29	745	0.0000191842	64
29	756	0.000019307	64
29	767	0.0000194298	64
29	778	0.0000195526	64
29	789	0.0000196754	64
29	1000	0.0000239074	64
29	1056	0.0000250974	64
29	1067	0.0000252202	64
29	1100	0.0000255886	64
29	1111	0.0000257114	64
29	1395	0.0000315018	64
29	1406	0.0000316246	64
29	1417	0.0000317474	64
29	1428	0.0000318702	64
29	1439	0.000031993	64
29	1450	0.0000321158	64
29	1461	0.0000322386	64
29	1483	0.0000324536	64
29	1635	0.0000386804	64
29	1665	0.0010098113	235
30	23	0.0000000144	64
30	81	0.00000206	64
30	140	0.000004072	64
30	186	0.0000061176	64
30	235	0.0000082108	64
30	237	0.0000083336	594
30	239	0.0000084564	594
30	349	0.0000122246	167
30	361	0.0000126032	594
30	373	0.000012726	594
30	375	0.0000128488	594
30	377	0.0000129716	594
30	573	0.0000168728	594
30	587	0.0000169956	594
30	599	0.0000171184	594
30	605	0.0000172412	594
30	615	0.000017364	594
30	619	0.0000174868	594
30	701	0.0000188158	64
30	733	0.0000190614	64
30	898	0.0000217914	500
30	1078	0.000025343	64
30	1089	0.0000254658	64
30	1122	0.0000258342	64
30	1133	0.000025957	64
30	1472	0.0000323002	64
30	1657	0.001009026035	239
31	28	0.0000010144	64
31	39	0.0000010312	64
31	95	0.0000030432	64
31	190	0.0000071008	64
31	200	0.0000071498	225
31	321	0.0000114684	64
31	326	0.0000115912	64
31	379	0.0000132154	205
31	515	0.000015738	64
31	520	0.0000158608	64
31	525	0.0000159836	64
31	530	0.0000161064	64
31	791	0.000019693	64
31	801	0.0000199386	64
31	806	0.0000200614	64
31	816	0.0000201842	64
31	821	0.000020307	64
31	826	0.0000204298	64
31	831	0.0000205526	64
31	836	0.0000206754	64
31	1040	0.0000249074	64
31	1139	0.0000260974	64
31	1144	0.0000262202	64
31	1159	0.0000265886	64
31	1164	0.0000267114	64
31	1485	0.0000325018	64
31	1490	0.0000326246	64
31	1495	0.0000327474	64
31	1500	0.0000328702	64
31	1505	0.000032993	64
31	1510	0.0000331158	64
31	1515	0.0000332386	64
31	1525	0.0000334536	64
31	1637	0.0000396804	64
31	1672	0.0010108113	235
32	28	0.0000010144	64
32	39	0.0000010312	64
32	95	0.0000030432	64
32	190	0.0000071008	64
32	200	0.0000071498	225
32	321	0.0000114684	64
32	326	0.0000115912	64
32	379	0.0000132154	205
32	515	0.000015738	64
32	520	0.0000158608	64
32	525	0.0000159836	64
32	530	0.0000161064	64
32	791	0.000019693	64
32	801	0.0000199386	64
32	806	0.0000200614	64
32	816	0.0000201842	64
32	821	0.000020307	64
32	826	0.0000204298	64
32	831	0.0000205526	64
32	836	0.0000206754	64
32	1040	0.0000249074	64
32	1139	0.0000260974	64
32	1144	0.0000262202	64
32	1159	0.0000265886	64
32	1164	0.0000267114	64
32	1485	0.0000325018	64
32	1490	0.0000326246	64
32	1495	0.0000327474	64
32	1500	0.0000328702	64
32	1505	0.000032993	64
32	1510	0.0000331158	64
32	1515	0.0000332386	64
32	1525	0.0000334536	64
32	1637	0.0000396804	64
32	1672	0.0010108113	235
33	29	0.0000010144	64
33	108	0.00000306	64
33	152	0.000005072	64
33	194	0.0000071176	64
33	259	0.0000092108	64
33	264	0.0000093336	594
33	268	0.0000094564	594
33	382	0.0000132246	167
33	389	0.0000136032	594
33	393	0.000013726	594
33	398	0.0000138488	594
33	403	0.0000139716	594
33	634	0.0000178728	594
33	642	0.0000179956	594
33	649	0.0000181184	594
33	654	0.0000182412	594
33	663	0.000018364	594
33	672	0.0000184868	594
33	796	0.0000198158	64
33	807	0.0000200614	64
33	946	0.0000227914	500
33	1149	0.000026343	64
33	1154	0.0000264658	64
33	1169	0.0000268342	64
33	1174	0.000026957	64
33	1520	0.0000333002	64
33	1667	0.001010026035	239
34	29	0.0000010144	64
34	108	0.00000306	64
34	152	0.000005072	64
34	194	0.0000071176	64
34	259	0.0000092108	64
34	264	0.0000093336	594
34	268	0.0000094564	594
34	382	0.0000132246	167
34	389	0.0000136032	594
34	393	0.000013726	594
34	398	0.0000138488	594
34	403	0.0000139716	594
34	634	0.0000178728	594
34	642	0.0000179956	594
34	649	0.0000181184	594
34	654	0.0000182412	594
34	663	0.000018364	594
34	672	0.0000184868	594
34	796	0.0000198158	64
34	807	0.0000200614	64
34	946	0.0000227914	500
34	1149	0.000026343	64
34	1154	0.0000264658	64
34	1169	0.0000268342	64
34	1174	0.000026957	64
34	1520	0.0000333002	64
34	1667	0.001010026035	239
35	32	0.0000010144	64
35	44	0.0000010312	64
35	101	0.0000030432	64
35	161	0.0000050888	64
35	202	0.0000071498	225
35	318	0.0000111752	64
35	323	0.0000114684	64
35	328	0.0000115912	64
35	517	0.000015738	64
35	522	0.0000158608	64
35	527	0.0000159836	64
35	532	0.0000161064	64
35	614	0.0000173592	64
35	628	0.000017681	594
35	641	0.0000179266	594
35	810	0.0000200614	64
35	818	0.0000201842	64
35	823	0.000020307	64
35	828	0.0000204298	64
35	833	0.0000205526	64
35	838	0.0000206754	64
35	1014	0.0000242082	594
35	1019	0.000024331	594
35	1034	0.0000246994	594
35	1039	0.0000248222	594
35	1042	0.0000249074	64
35	1376	0.000031196	441
35	1721	0.001014153635	64
36	32	0.0000010144	64
36	44	0.0000010312	64
36	101	0.0000030432	64
36	161	0.0000050888	64
36	202	0.0000071498	225
36	318	0.0000111752	64
36	323	0.0000114684	64
36	328	0.0000115912	64
36	517	0.000015738	64
36	522	0.0000158608	64
36	527	0.0000159836	64
36	532	0.0000161064	64
36	614	0.0000173592	64
36	628	0.000017681	594
36	641	0.0000179266	594
36	810	0.0000200614	64
36	818	0.0000201842	64
36	823	0.000020307	64
36	828	0.0000204298	64
36	833	0.0000205526	64
36	838	0.0000206754	64
36	1014	0.0000242082	594
36	1019	0.000024331	594
36	1034	0.0000246994	594
36	1039	0.0000248222	594
36	1042	0.0000249074	64
36	1376	0.000031196	441
36	1721	0.001014153635	64
37	32	0.0000010144	1
37	32	0.0000010144	0
37	44	0.0000010312	1
37	44	0.0000010312	0
37	101	0.0000030432	1
37	101	0.0000030432	0
37	161	0.0000050888	1
37	161	0.0000050888	0
37	202	0.0000071498	1
37	202	0.0000071498	0
37	318	0.0000111752	1
37	318	0.0000111752	0
37	323	0.0000114684	1
37	323	0.0000114684	0
37	328	0.0000115912	1
37	328	0.0000115912	0
37	517	0.000015738	1
37	517	0.000015738	0
37	522	0.0000158608	1
37	522	0.0000158608	0
37	527	0.0000159836	1
37	527	0.0000159836	0
37	532	0.0000161064	1
37	532	0.0000161064	0
37	614	0.0000173592	1
37	614	0.0000173592	0
37	628	0.000017681	1
37	628	0.000017681	0
37	641	0.0000179266	1
37	641	0.0000179266	0
37	810	0.0000200614	1
37	810	0.0000200614	0
37	818	0.0000201842	1
37	818	0.0000201842	0
37	823	0.000020307	1
37	823	0.000020307	0
37	828	0.0000204298	1
37	828	0.0000204298	0
37	833	0.0000205526	1
37	833	0.0000205526	0
37	838	0.0000206754	1
37	838	0.0000206754	0
37	1014	0.0000242082	1
37	1014	0.0000242082	0
37	1019	0.000024331	1
37	1019	0.000024331	0
37	1034	0.0000246994	1
37	1034	0.0000246994	0
37	1039	0.0000248222	1
37	1039	0.0000248222	0
37	1042	0.0000249074	1
37	1044	0.000024945	0
37	1376	0.000031196	1
37	1376	0.000031196	0
37	1721	0.001014153635	1
37	1721	0.001014153635	0
38	32	0.0000010144	64
38	44	0.0000010312	64
38	101	0.0000030432	64
38	161	0.0000050888	64
38	202	0.0000071498	225
38	318	0.0000111752	64
38	323	0.0000114684	64
38	328	0.0000115912	64
38	517	0.000015738	64
38	522	0.0000158608	64
38	527	0.0000159836	64
38	532	0.0000161064	64
38	614	0.0000173592	64
38	628	0.000017681	594
38	641	0.0000179266	594
38	810	0.0000200614	64
38	818	0.0000201842	64
38	823	0.000020307	64
38	828	0.0000204298	64
38	833	0.0000205526	64
38	838	0.0000206754	64
38	1014	0.0000242082	594
38	1019	0.000024331	594
38	1034	0.0000246994	594
38	1039	0.0000248222	594
38	1044	0.000024945	64
38	1376	0.000031196	441
38	1721	0.001014153635	64
39	32	0.0000010144	0
39	44	0.0000010312	0
39	101	0.0000030432	0
39	161	0.0000050888	0
39	202	0.0000071498	0
39	318	0.0000111752	0
39	323	0.0000114684	0
39	328	0.0000115912	0
39	517	0.000015738	0
39	522	0.0000158608	0
39	527	0.0000159836	0
39	532	0.0000161064	0
39	614	0.0000173592	0
39	628	0.000017681	0
39	641	0.0000179266	0
39	810	0.0000200614	0
39	818	0.0000201842	0
39	823	0.000020307	0
39	828	0.0000204298	0
39	833	0.0000205526	0
39	838	0.0000206754	0
39	1014	0.0000242082	0
39	1019	0.000024331	0
39	1034	0.0000246994	0
39	1039	0.0000248222	0
39	1044	0.000024945	3.76e-08
39	1376	0.000031196	0
39	1721	0.001014153635	0
40	33	0.0000010144	64
40	35	0.0000010144	64
40	45	0.0000010312	64
40	192	0.0000071008	64
40	197	0.0000071176	64
40	381	0.0000132154	205
40	384	0.0000132246	167
40	793	0.000019693	64
40	798	0.0000198158	64
40	803	0.0000199386	64
40	811	0.0000200614	64
40	1141	0.0000260974	64
40	1146	0.0000262202	64
40	1151	0.000026343	64
40	1156	0.0000264658	64
40	1161	0.0000265886	64
40	1166	0.0000267114	64
40	1171	0.0000268342	64
40	1176	0.000026957	64
40	1487	0.0000325018	64
40	1492	0.0000326246	64
40	1497	0.0000327474	64
40	1502	0.0000328702	64
40	1507	0.000032993	64
40	1512	0.0000331158	64
40	1517	0.0000332386	64
40	1522	0.0000333002	64
40	1527	0.0000334536	64
40	1639	0.0000396804	64
40	1669	0.001010026035	239
40	1674	0.0010108113	235
41	33	0.0000010144	64
41	35	0.0000010144	64
41	45	0.0000010312	64
41	192	0.0000071008	64
41	197	0.0000071176	64
41	381	0.0000132154	205
41	384	0.0000132246	167
41	793	0.000019693	64
41	798	0.0000198158	64
41	803	0.0000199386	64
41	811	0.0000200614	64
41	1141	0.0000260974	64
41	1146	0.0000262202	64
41	1151	0.000026343	64
41	1156	0.0000264658	64
41	1161	0.0000265886	64
41	1166	0.0000267114	64
41	1171	0.0000268342	64
41	1176	0.000026957	64
41	1487	0.0000325018	64
41	1492	0.0000326246	64
41	1497	0.0000327474	64
41	1502	0.0000328702	64
41	1507	0.000032993	64
41	1512	0.0000331158	64
41	1517	0.0000332386	64
41	1522	0.0000333002	64
41	1527	0.0000334536	64
41	1639	0.0000396804	64
41	1669	0.001010026035	239
41	1674	0.0010108113	235
42	33	0.0000010144	1
42	33	0.0000010144	0
42	35	0.0000010144	1
42	41	0.0000010312	0
42	45	0.0000010312	1
42	48	0.000001048	0
42	192	0.0000071008	1
42	192	0.0000071008	0
42	197	0.0000071176	1
42	197	0.0000071176	0
42	381	0.0000132154	1
42	381	0.0000132154	0
42	384	0.0000132246	1
42	386	0.0000132604	0
42	793	0.000019693	1
42	793	0.000019693	0
42	798	0.0000198158	1
42	798	0.0000198158	0
42	803	0.0000199386	1
42	803	0.0000199386	0
42	811	0.0000200614	1
42	811	0.0000200614	0
42	1141	0.0000260974	1
42	1141	0.0000260974	0
42	1146	0.0000262202	1
42	1146	0.0000262202	0
42	1151	0.000026343	1
42	1151	0.000026343	0
42	1156	0.0000264658	1
42	1156	0.0000264658	0
42	1161	0.0000265886	1
42	1161	0.0000265886	0
42	1166	0.0000267114	1
42	1166	0.0000267114	0
42	1171	0.0000268342	1
42	1171	0.0000268342	0
42	1176	0.000026957	1
42	1176	0.000026957	0
42	1487	0.0000325018	1
42	1487	0.0000325018	0
42	1492	0.0000326246	1
42	1492	0.0000326246	0
42	1497	0.0000327474	1
42	1497	0.0000327474	0
42	1502	0.0000328702	1
42	1502	0.0000328702	0
42	1507	0.000032993	1
42	1507	0.000032993	0
42	1512	0.0000331158	1
42	1512	0.0000331158	0
42	1517	0.0000332386	1
42	1517	0.0000332386	0
42	1522	0.0000333002	1
42	1522	0.0000333002	0
42	1527	0.0000334536	1
42	1527	0.0000334536	0
42	1639	0.0000396804	1
42	1639	0.0000396804	0
42	1669	0.001010026035	1
42	1669	0.001010026035	0
42	1674	0.0010108113	1
42	1674	0.0010108113	0
43	33	0.0000010144	64
43	41	0.0000010312	64
43	48	0.000001048	64
43	192	0.0000071008	64
43	197	0.0000071176	64
43	381	0.0000132154	205
43	386	0.0000132604	167
43	793	0.000019693	64
43	798	0.0000198158	64
43	803	0.0000199386	64
43	811	0.0000200614	64
43	1141	0.0000260974	64
43	1146	0.0000262202	64
43	1151	0.000026343	64
43	1156	0.0000264658	64
43	1161	0.0000265886	64
43	1166	0.0000267114	64
43	1171	0.0000268342	64
43	1176	0.000026957	64
43	1487	0.0000325018	64
43	1492	0.0000326246	64
43	1497	0.0000327474	64
43	1502	0.0000328702	64
43	1507	0.000032993	64
43	1512	0.0000331158	64
43	1517	0.0000332386	64
43	1522	0.0000333002	64
43	1527	0.0000334536	64
43	1639	0.0000396804	64
43	1669	0.001010026035	239
43	1674	0.0010108113	235
44	33	0.0000010144	0
44	41	0.0000010312	1.68e-08
44	48	0.000001048	1.68e-08
44	192	0.0000071008	0
44	197	0.0000071176	0
44	381	0.0000132154	0
44	386	0.0000132604	3.58e-08
44	793	0.000019693	0
44	798	0.0000198158	0
44	803	0.0000199386	0
44	811	0.0000200614	0
44	1141	0.0000260974	0
44	1146	0.0000262202	0
44	1151	0.000026343	0
44	1156	0.0000264658	0
44	1161	0.0000265886	0
44	1166	0.0000267114	0
44	1171	0.0000268342	0
44	1176	0.000026957	0
44	1487	0.0000325018	0
44	1492	0.0000326246	0
44	1497	0.0000327474	0
44	1502	0.0000328702	0
44	1507	0.000032993	0
44	1512	0.0000331158	0
44	1517	0.0000332386	0
44	1522	0.0000333002	0
44	1527	0.0000334536	0
44	1639	0.0000396804	0
44	1669	0.001010026035	0
44	1674	0.0010108113	0
45	34	0.0000010144	64
45	116	0.00000306	64
45	155	0.000005072	64
45	156	0.000005072	64
45	261	0.0000092108	64
45	266	0.0000093336	594
45	271	0.0000094564	594
45	313	0.0000111584	64
45	391	0.0000136032	594
45	396	0.000013726	594
45	401	0.0000138488	594
45	406	0.0000139716	594
45	609	0.0000173294	64
45	623	0.0000175582	594
45	633	0.0000178038	594
45	636	0.0000178728	594
45	644	0.0000179956	594
45	651	0.0000181184	594
45	656	0.0000182412	594
45	665	0.000018364	594
45	674	0.0000184868	594
45	948	0.0000227914	500
45	1004	0.0000239626	594
45	1009	0.0000240854	594
45	1024	0.0000244538	594
45	1029	0.0000245766	594
45	1343	0.000030367	594
45	1348	0.0000304898	594
45	1353	0.0000306126	594
45	1358	0.0000307354	594
45	1363	0.0000308582	594
45	1368	0.000030981	594
45	1373	0.0000311038	594
45	1383	0.0000313188	594
45	1623	0.0000376048	298
45	1726	0.0010149373	64
46	34	0.0000010144	64
46	116	0.00000306	64
46	155	0.000005072	64
46	156	0.000005072	64
46	261	0.0000092108	64
46	266	0.0000093336	594
46	271	0.0000094564	594
46	313	0.0000111584	64
46	391	0.0000136032	594
46	396	0.000013726	594
46	401	0.0000138488	594
46	406	0.0000139716	594
46	609	0.0000173294	64
46	623	0.0000175582	594
46	633	0.0000178038	594
46	636	0.0000178728	594
46	644	0.0000179956	594
46	651	0.0000181184	594
46	656	0.0000182412	594
46	665	0.000018364	594
46	674	0.0000184868	594
46	948	0.0000227914	500
46	1004	0.0000239626	594
46	1009	0.0000240854	594
46	1024	0.0000244538	594
46	1029	0.0000245766	594
46	1343	0.000030367	594
46	1348	0.0000304898	594
46	1353	0.0000306126	594
46	1358	0.0000307354	594
46	1363	0.0000308582	594
46	1368	0.000030981	594
46	1373	0.0000311038	594
46	1383	0.0000313188	594
46	1623	0.0000376048	298
46	1726	0.0010149373	64
47	34	0.0000010144	1
47	34	0.0000010144	0
47	116	0.00000306	1
47	116	0.00000306	0
47	155	0.000005072	1
47	155	0.000005072	0
47	156	0.000005072	1
47	159	0.0000050888	0
47	261	0.0000092108	1
47	261	0.0000092108	0
47	266	0.0000093336	1
47	266	0.0000093336	0
47	271	0.0000094564	1
47	271	0.0000094564	0
47	313	0.0000111584	1
47	313	0.0000111584	0
47	391	0.0000136032	1
47	391	0.0000136032	0
47	396	0.000013726	1
47	396	0.000013726	0
47	401	0.0000138488	1
47	401	0.0000138488	0
47	406	0.0000139716	1
47	406	0.0000139716	0
47	609	0.0000173294	1
47	609	0.0000173294	0
47	623	0.0000175582	1
47	623	0.0000175582	0
47	633	0.0000178038	1
47	633	0.0000178038	0
47	636	0.0000178728	1
47	639	0.0000179266	0
47	644	0.0000179956	1
47	647	0.0000180494	0
47	651	0.0000181184	1
47	653	0.0000181722	0
47	656	0.0000182412	1
47	658	0.000018295	0
47	665	0.000018364	1
47	671	0.0000184178	0
47	674	0.0000184868	1
47	676	0.0000185406	0
47	948	0.0000227914	1
47	948	0.0000227914	0
47	1004	0.0000239626	1
47	1004	0.0000239626	0
47	1009	0.0000240854	1
47	1009	0.0000240854	0
47	1024	0.0000244538	1
47	1024	0.0000244538	0
47	1029	0.0000245766	1
47	1029	0.0000245766	0
47	1343	0.000030367	1
47	1343	0.000030367	0
47	1348	0.0000304898	1
47	1348	0.0000304898	0
47	1353	0.0000306126	1
47	1353	0.0000306126	0
47	1358	0.0000307354	1
47	1358	0.0000307354	0
47	1363	0.0000308582	1
47	1363	0.0000308582	0
47	1368	0.000030981	1
47	1368	0.000030981	0
47	1373	0.0000311038	1
47	1373	0.0000311038	0
47	1383	0.0000313188	1
47	1383	0.0000313188	0
47	1623	0.0000376048	1
47	1623	0.0000376048	0
47	1726	0.0010149373	1
47	1726	0.0010149373	0
48	34	0.0000010144	64
48	116	0.00000306	64
48	155	0.000005072	64
48	159	0.0000050888	64
48	261	0.0000092108	64
48	266	0.0000093336	594
48	271	0.0000094564	594
48	313	0.0000111584	64
48	391	0.0000136032	594
48	396	0.000013726	594
48	401	0.0000138488	594
48	406	0.0000139716	594
48	609	0.0000173294	64
48	623	0.0000175582	594
48	633	0.0000178038	594
48	639	0.0000179266	594
48	647	0.0000180494	594
48	653	0.0000181722	594
48	658	0.000018295	594
48	671	0.0000184178	594
48	676	0.0000185406	594
48	948	0.0000227914	500
48	1004	0.0000239626	594
48	1009	0.0000240854	594
48	1024	0.0000244538	594
48	1029	0.0000245766	594
48	1343	0.000030367	594
48	1348	0.0000304898	594
48	1353	0.0000306126	594
48	1358	0.0000307354	594
48	1363	0.0000308582	594
48	1368	0.000030981	594
48	1373	0.0000311038	594
48	1383	0.0000313188	594
48	1623	0.0000376048	298
48	1726	0.0010149373	64
49	34	0.0000010144	0
49	116	0.00000306	0
49	155	0.000005072	0
49	159	0.0000050888	1.68e-08
49	261	0.0000092108	0
49	266	0.0000093336	0
49	271	0.0000094564	0
49	313	0.0000111584	0
49	391	0.0000136032	0
49	396	0.000013726	0
49	401	0.0000138488	0
49	406	0.0000139716	0
49	609	0.0000173294	0
49	623	0.0000175582	0
49	633	0.0000178038	0
49	639	0.0000179266	5.38e-08
49	647	0.0000180494	5.38e-08
49	653	0.0000181722	5.38e-08
49	658	0.000018295	5.38e-08
49	671	0.0000184178	5.38e-08
49	676	0.0000185406	5.38e-08
49	948	0.0000227914	0
49	1004	0.0000239626	0
49	1009	0.0000240854	0
49	1024	0.0000244538	0
49	1029	0.0000245766	0
49	1343	0.000030367	0
49	1348	0.0000304898	0
49	1353	0.0000306126	0
49	1358	0.0000307354	0
49	1363	0.0000308582	0
49	1368	0.000030981	0
49	1373	0.0000311038	0
49	1383	0.0000313188	0
49	1623	0.0000376048	0
49	1726	0.0010149373	0
50	36	0.0000010288	64
50	47	0.0000010456	64
50	104	0.0000030576	64
50	163	0.0000051032	64
50	203	0.0000071964	225
50	319	0.0000111896	64
50	324	0.0000114828	64
50	329	0.0000116056	64
50	518	0.0000157524	64
50	523	0.0000158752	64
50	528	0.000015998	64
50	533	0.0000161208	64
50	617	0.0000173736	64
50	629	0.0000178014	594
50	646	0.000018047	594
50	812	0.0000200758	64
50	819	0.0000201986	64
50	824	0.0000203214	64
50	829	0.0000204442	64
50	834	0.000020567	64
50	839	0.0000206898	64
50	1015	0.0000243286	594
50	1020	0.0000244514	594
50	1035	0.0000248198	594
50	1043	0.0000249426	594
50	1045	0.0000249594	64
50	1379	0.0000312858	441
50	1722	0.001014168035	64
51	37	0.0000010288	64
51	46	0.0000010456	64
51	50	0.0000010624	64
51	193	0.0000071152	64
51	198	0.000007132	64
51	385	0.000013258	205
51	387	0.0000132954	167
51	794	0.0000197074	64
51	799	0.0000198302	64
51	804	0.000019953	64
51	813	0.0000200758	64
51	1142	0.0000261118	64
51	1147	0.0000262346	64
51	1152	0.0000263574	64
51	1157	0.0000264802	64
51	1162	0.000026603	64
51	1167	0.0000267258	64
51	1172	0.0000268486	64
51	1177	0.0000269714	64
51	1488	0.0000325162	64
51	1493	0.000032639	64
51	1498	0.0000327618	64
51	1503	0.0000328846	64
51	1508	0.0000330074	64
51	1513	0.0000331302	64
51	1518	0.000033253	64
51	1523	0.0000333146	64
51	1528	0.000033468	64
51	1640	0.0000396948	64
51	1670	0.001010075435	239
51	1675	0.0010108599	235
52	38	0.0000010288	64
52	119	0.0000030744	64
52	157	0.0000050864	64
52	162	0.0000051032	64
52	262	0.0000092252	64
52	267	0.000009454	594
52	272	0.0000095768	594
52	314	0.0000111728	64
52	392	0.0000137236	594
52	397	0.0000138464	594
52	402	0.0000139692	594
52	407	0.000014092	594
52	610	0.0000173438	64
52	624	0.0000176786	594
52	637	0.0000179242	594
52	645	0.000018047	594
52	652	0.0000181698	594
52	657	0.0000182926	594
52	670	0.0000184154	594
52	675	0.0000185382	594
52	677	0.000018661	594
52	952	0.000022893	500
52	1005	0.000024083	594
52	1010	0.0000242058	594
52	1025	0.0000245742	594
52	1030	0.000024697	594
52	1344	0.0000304874	594
52	1349	0.0000306102	594
52	1354	0.000030733	594
52	1359	0.0000308558	594
52	1364	0.0000309786	594
52	1369	0.0000311014	594
52	1377	0.0000312242	594
52	1384	0.0000314392	594
52	1624	0.000037666	298
52	1727	0.0010149517	64
53	52	0.0000020288	64
53	68	0.0000020456	64
53	129	0.0000040576	64
53	173	0.0000061032	64
53	215	0.0000081964	225
53	339	0.0000121896	64
53	351	0.0000124828	64
53	362	0.0000126056	64
53	561	0.0000167524	64
53	574	0.0000168752	64
53	588	0.000016998	64
53	600	0.0000171208	64
53	666	0.0000183736	64
53	691	0.0000188014	594
53	715	0.000019047	594
53	856	0.0000210758	64
53	865	0.0000211986	64
53	869	0.0000213214	64
53	873	0.0000214442	64
53	877	0.000021567	64
53	881	0.0000216898	64
53	1069	0.0000253286	594
53	1080	0.0000254514	594
53	1113	0.0000258198	594
53	1124	0.0000259426	594
53	1134	0.0000259594	64
53	1463	0.0000322858	441
53	1729	0.001015168035	64
54	52	0.0000020288	64
54	68	0.0000020456	64
54	129	0.0000040576	64
54	173	0.0000061032	64
54	215	0.0000081964	225
54	339	0.0000121896	64
54	351	0.0000124828	64
54	362	0.0000126056	64
54	561	0.0000167524	64
54	574	0.0000168752	64
54	588	0.000016998	64
54	600	0.0000171208	64
54	666	0.0000183736	64
54	691	0.0000188014	594
54	715	0.000019047	594
54	856	0.0000210758	64
54	865	0.0000211986	64
54	869	0.0000213214	64
54	873	0.0000214442	64
54	877	0.000021567	64
54	881	0.0000216898	64
54	1069	0.0000253286	594
54	1080	0.0000254514	594
54	1113	0.0000258198	594
54	1124	0.0000259426	594
54	1134	0.0000259594	64
54	1463	0.0000322858	441
54	1729	0.001015168035	64
55	53	0.0000020288	64
55	67	0.0000020456	64
55	82	0.0000020624	64
55	205	0.0000081152	64
55	209	0.000008132	64
55	409	0.000014258	205
55	412	0.0000142954	167
55	841	0.0000207074	64
55	846	0.0000208302	64
55	851	0.000020953	64
55	857	0.0000210758	64
55	1179	0.0000271118	64
55	1184	0.0000272346	64
55	1189	0.0000273574	64
55	1194	0.0000274802	64
55	1199	0.000027603	64
55	1204	0.0000277258	64
55	1209	0.0000278486	64
55	1214	0.0000279714	64
55	1530	0.0000335162	64
55	1535	0.000033639	64
55	1540	0.0000337618	64
55	1545	0.0000338846	64
55	1550	0.0000340074	64
55	1555	0.0000341302	64
55	1560	0.000034253	64
55	1565	0.0000343146	64
55	1570	0.000034468	64
55	1642	0.0000406948	64
55	1677	0.001011075435	239
55	1682	0.0010118599	235
56	53	0.0000020288	64
56	67	0.0000020456	64
56	82	0.0000020624	64
56	205	0.0000081152	64
56	209	0.000008132	64
56	409	0.000014258	205
56	412	0.0000142954	167
56	841	0.0000207074	64
56	846	0.0000208302	64
56	851	0.000020953	64
56	857	0.0000210758	64
56	1179	0.0000271118	64
56	1184	0.0000272346	64
56	1189	0.0000273574	64
56	1194	0.0000274802	64
56	1199	0.000027603	64
56	1204	0.0000277258	64
56	1209	0.0000278486	64
56	1214	0.0000279714	64
56	1530	0.0000335162	64
56	1535	0.000033639	64
56	1540	0.0000337618	64
56	1545	0.0000338846	64
56	1550	0.0000340074	64
56	1555	0.0000341302	64
56	1560	0.000034253	64
56	1565	0.0000343146	64
56	1570	0.000034468	64
56	1642	0.0000406948	64
56	1677	0.001011075435	239
56	1682	0.0010118599	235
57	54	0.0000020288	64
57	141	0.0000040744	64
57	166	0.0000060864	64
57	172	0.0000061032	64
57	284	0.0000102252	64
57	288	0.000010454	594
57	300	0.0000105768	594
57	331	0.0000121728	64
57	419	0.0000147236	594
57	430	0.0000148464	594
57	441	0.0000149692	594
57	452	0.000015092	594
57	659	0.0000183438	64
57	679	0.0000186786	594
57	703	0.0000189242	594
57	714	0.000019047	594
57	736	0.0000191698	594
57	747	0.0000192926	594
57	758	0.0000194154	594
57	769	0.0000195382	594
57	780	0.000019661	594
57	991	0.000023893	500
57	1047	0.000025083	594
57	1058	0.0000252058	594
57	1091	0.0000255742	594
57	1102	0.000025697	594
57	1386	0.0000314874	594
57	1397	0.0000316102	594
57	1408	0.000031733	594
57	1419	0.0000318558	594
57	1430	0.0000319786	594
57	1441	0.0000321014	594
57	1452	0.0000322242	594
57	1474	0.0000324392	594
57	1626	0.000038666	298
57	1733	0.0010159517	64
58	54	0.0000020288	64
58	141	0.0000040744	64
58	166	0.0000060864	64
58	172	0.0000061032	64
58	284	0.0000102252	64
58	288	0.000010454	594
58	300	0.0000105768	594
58	331	0.0000121728	64
58	419	0.0000147236	594
58	430	0.0000148464	594
58	441	0.0000149692	594
58	452	0.000015092	594
58	659	0.0000183438	64
58	679	0.0000186786	594
58	703	0.0000189242	594
58	714	0.000019047	594
58	736	0.0000191698	594
58	747	0.0000192926	594
58	758	0.0000194154	594
58	769	0.0000195382	594
58	780	0.000019661	594
58	991	0.000023893	500
58	1047	0.000025083	594
58	1058	0.0000252058	594
58	1091	0.0000255742	594
58	1102	0.000025697	594
58	1386	0.0000314874	594
58	1397	0.0000316102	594
58	1408	0.000031733	594
58	1419	0.0000318558	594
58	1430	0.0000319786	594
58	1441	0.0000321014	594
58	1452	0.0000322242	594
58	1474	0.0000324392	594
58	1626	0.000038666	298
58	1733	0.0010159517	64
59	55	0.0000020288	46
59	73	0.0000020456	46
59	131	0.0000040576	46
59	176	0.0000061032	46
59	216	0.0000081964	207
59	340	0.0000121896	46
59	352	0.0000124828	46
59	364	0.0000126056	46
59	562	0.0000167524	46
59	576	0.0000168752	46
59	590	0.000016998	46
59	602	0.0000171208	46
59	667	0.0000183736	46
59	692	0.0000188014	576
59	717	0.000019047	576
59	858	0.0000210758	46
59	866	0.0000211986	46
59	870	0.0000213214	46
59	874	0.0000214442	46
59	878	0.000021567	46
59	882	0.0000216898	46
59	1070	0.0000253286	576
59	1081	0.0000254514	576
59	1114	0.0000258198	576
59	1125	0.0000259426	576
59	1136	0.0000259594	46
59	1464	0.0000322858	423
59	1730	0.001015168035	46
60	57	0.0000020288	46
60	145	0.0000040744	46
60	167	0.0000060864	46
60	175	0.0000061032	46
60	285	0.0000102252	46
60	289	0.000010454	576
60	301	0.0000105768	576
60	332	0.0000121728	46
60	420	0.0000147236	576
60	431	0.0000148464	576
60	442	0.0000149692	576
60	453	0.000015092	576
60	660	0.0000183438	46
60	680	0.0000186786	576
60	704	0.0000189242	576
60	716	0.000019047	576
60	737	0.0000191698	576
60	748	0.0000192926	576
60	759	0.0000194154	576
60	770	0.0000195382	576
60	781	0.000019661	576
60	992	0.000023893	482
60	1048	0.000025083	576
60	1059	0.0000252058	576
60	1092	0.0000255742	576
60	1103	0.000025697	576
60	1387	0.0000314874	576
60	1398	0.0000316102	576
60	1409	0.000031733	576
60	1420	0.0000318558	576
60	1431	0.0000319786	576
60	1442	0.0000321014	576
60	1453	0.0000322242	576
60	1475	0.0000324392	576
60	1627	0.000038666	280
60	1734	0.0010159517	46
61	59	0.0000020288	64
61	74	0.0000020456	64
61	87	0.0000020624	64
61	212	0.000008132	64
61	414	0.0000142954	167
61	848	0.0000208302	64
61	861	0.0000210758	64
61	1191	0.0000273574	64
61	1196	0.0000274802	64
61	1211	0.0000278486	64
61	1216	0.0000279714	64
61	1567	0.0000343146	64
61	1679	0.001011075435	239
62	59	0.0000020288	64
62	74	0.0000020456	64
62	87	0.0000020624	64
62	212	0.000008132	64
62	414	0.0000142954	167
62	848	0.0000208302	64
62	861	0.0000210758	64
62	1191	0.0000273574	64
62	1196	0.0000274802	64
62	1211	0.0000278486	64
62	1216	0.0000279714	64
62	1567	0.0000343146	64
62	1679	0.001011075435	239
63	59	0.0000020288	1
63	59	0.0000020288	0
63	74	0.0000020456	1
63	74	0.0000020456	0
63	87	0.0000020624	1
63	87	0.0000020624	0
63	212	0.000008132	1
63	212	0.000008132	0
63	414	0.0000142954	1
63	414	0.0000142954	0
63	848	0.0000208302	1
63	848	0.0000208302	0
63	861	0.0000210758	1
63	861	0.0000210758	0
63	1191	0.0000273574	1
63	1191	0.0000273574	0
63	1196	0.0000274802	1
63	1196	0.0000274802	0
63	1211	0.0000278486	1
63	1211	0.0000278486	0
63	1216	0.0000279714	1
63	1216	0.0000279714	0
63	1567	0.0000343146	1
63	1567	0.0000343146	0
63	1679	0.001011075435	1
[...]
153	1252	0.0000284946	7504
153	1282	0.000028863	7504
153	1288	0.0000289858	7504
153	1606	0.000035329	7504
154	253	0.0000091464	0
154	488	0.0000153304	0
154	488	0.0000153304	109
154	498	0.0000153304	0
154	498	0.0000153304	0
154	905	0.0000218446	0
154	905	0.0000218446	0
154	933	0.0000220902	0
154	933	0.0000220902	0
154	1288	0.0000289858	0
154	1690	0.001012124835	0
154	1690	0.001012124835	0
155	253	0.0000091464	7504
155	488	0.0000153304	7395
155	498	0.0000153304	7504
155	498	0.0000153304	7504
155	905	0.0000218446	7504
155	905	0.0000218446	7504
155	933	0.0000220902	7504
155	933	0.0000220902	7504
155	1288	0.0000289858	7504
155	1690	0.001012124835	7504
156	253	0.0000091464	1
156	488	0.0000153304	110
156	498	0.0000153304	110
156	498	0.0000153304	110
156	905	0.0000218446	110
156	905	0.0000218446	110
156	933	0.0000220902	110
156	933	0.0000220902	110
156	1288	0.0000289858	110
156	1690	0.001012124835	291
157	287	0.0000102252	4.122e-06
158	287	0.0000102252	5.1525e-07
159	287	0.0000102252	0.65625051525
160	287	0.0000102252	2.62500257625
161	287	0.0000102252	1072
162	287	0.0000102252	4294967295
163	287	0.0000102252	0
163	291	0.000010454	0
163	303	0.0000105768	0
163	422	0.0000147236	0
163	433	0.0000148464	0
163	444	0.0000149692	0
163	455	0.000015092	0
163	720	0.000019047	0
163	739	0.0000191698	0
163	750	0.0000192926	0
163	761	0.0000194154	0
163	772	0.0000195382	0
163	783	0.000019661	0
163	994	0.000023893	0
164	294	0.000010454	536
164	306	0.0000105768	536
164	425	0.0000147236	536
164	436	0.0000148464	536
164	447	0.0000149692	536
164	458	0.000015092	536
164	726	0.000019047	536
164	742	0.0000191698	536
164	753	0.0000192926	536
164	764	0.0000194154	536
164	775	0.0000195382	536
164	786	0.000019661	536
164	997	0.000023893	442
165	294	0.000010454	536
165	306	0.0000105768	536
165	425	0.0000147236	536
165	436	0.0000148464	536
165	447	0.0000149692	536
165	458	0.000015092	536
165	726	0.000019047	536
165	742	0.0000191698	536
165	753	0.0000192926	536
165	764	0.0000194154	536
165	775	0.0000195382	536
165	786	0.000019661	536
165	997	0.000023893	442
166	334	0.0000121728	2
166	662	0.0000183438	3
166	682	0.0000186786	3
166	706	0.0000189242	539
166	1050	0.000025083	1075
166	1061	0.0000252058	1611
166	1094	0.0000255742	2147
166	1105	0.000025697	2683
166	1389	0.0000314874	3219
166	1400	0.0000316102	3755
166	1411	0.000031733	4291
166	1422	0.0000318558	4827
166	1433	0.0000319786	5363
166	1444	0.0000321014	5899
166	1455	0.0000322242	6435
166	1477	0.0000324392	6971
166	1629	0.000038666	7507
166	1736	0.0010159517	7747
167	334	0.0000121728	1
167	662	0.0000183438	148
167	682	0.0000186786	148
167	706	0.0000189242	148
167	1050	0.000025083	148
167	1061	0.0000252058	148
167	1094	0.0000255742	148
167	1105	0.000025697	148
167	1389	0.0000314874	148
167	1400	0.0000316102	148
167	1411	0.000031733	148
167	1422	0.0000318558	148
167	1433	0.0000319786	148
167	1444	0.0000321014	148
167	1455	0.0000322242	148
167	1477	0.0000324392	148
167	1629	0.000038666	148
167	1736	0.0010159517	325
168	334	0.0000121728	0
168	662	0.0000183438	0
168	682	0.0000186786	536
168	706	0.0000189242	536
168	1050	0.000025083	536
168	1061	0.0000252058	536
168	1094	0.0000255742	536
168	1105	0.000025697	536
168	1389	0.0000314874	536
168	1400	0.0000316102	536
168	1411	0.000031733	536
168	1422	0.0000318558	536
168	1433	0.0000319786	536
168	1444	0.0000321014	536
168	1455	0.0000322242	536
168	1477	0.0000324392	536
168	1629	0.000038666	240
168	1736	0.0010159517	0
169	334	0.0000121728	7504
169	662	0.0000183438	7357
169	1736	0.0010159517	7504
170	334	0.0000121728	1
170	1661	0.0010097627	148
171	334	0.0000121728	147
171	662	0.0000183438	0
171	1661	0.0010097627	177
171	1736	0.0010159517	0
172	342	0.0000121896	2
172	669	0.0000183736	3
172	694	0.0000188014	3
172	721	0.000019047	539
172	1072	0.0000253286	1075
172	1083	0.0000254514	1611
172	1116	0.0000258198	2147
172	1127	0.0000259426	2683
172	1466	0.0000322858	3219
172	1732	0.001015168035	3602
173	342	0.0000121896	1
173	669	0.0000183736	110
173	694	0.0000188014	110
173	721	0.000019047	110
173	1072	0.0000253286	110
173	1083	0.0000254514	110
173	1116	0.0000258198	110
173	1127	0.0000259426	110
173	1466	0.0000322858	110
173	1732	0.001015168035	291
174	342	0.0000121896	0
174	669	0.0000183736	0
174	694	0.0000188014	536
174	721	0.000019047	536
174	1072	0.0000253286	536
174	1083	0.0000254514	536
174	1116	0.0000258198	536
174	1127	0.0000259426	536
174	1466	0.0000322858	383
174	1732	0.001015168035	0
175	342	0.0000121896	7504
175	669	0.0000183736	7395
175	1732	0.001015168035	7504
176	342	0.0000121896	1
176	1653	0.001008976635	110
177	342	0.0000121896	109
177	669	0.0000183736	0
177	1653	0.001008976635	181
177	1732	0.001015168035	0
178	354	0.0000124828	4.2864e-06
178	564	0.0000167524	4.2696e-06
178	862	0.0000210758	4.3234e-06
178	1138	0.0000259594	4.2696e-06
179	354	0.0000124828	5.358e-07
179	564	0.0000167524	1.002525e-06
179	862	0.0000210758	1.417634e-06
179	1138	0.0000259594	1.77413e-06
180	354	0.0000124828	0.6562505358
180	564	0.0000167524	0.57421968555
180	862	0.0000210758	0.502442639966
180	1138	0.0000259594	0.439637666466
181	354	0.0000124828	2.625002679
181	564	0.0000167524	2.296879744725
181	862	0.0000210758	2.009771977498
181	1138	0.0000259594	1.758552439994
182	466	0.0000153006	1
182	891	0.0000217218	148
182	919	0.0000219674	148
182	1222	0.0000281262	148
182	1234	0.000028249	148
182	1258	0.0000286174	148
182	1270	0.0000287402	148
182	1578	0.0000345306	148
182	1582	0.0000346534	148
182	1586	0.0000347762	148
182	1590	0.000034899	148
182	1594	0.0000350218	148
182	1598	0.0000351446	148
182	1602	0.0000352674	148
182	1610	0.0000354824	148
182	1650	0.0000417092	148
182	1701	0.0010129085	148
183	466	0.0000153006	3
183	891	0.0000217218	539
183	919	0.0000219674	1075
183	1222	0.0000281262	1611
183	1234	0.000028249	2147
183	1258	0.0000286174	2683
183	1270	0.0000287402	3219
183	1578	0.0000345306	3755
183	1582	0.0000346534	4291
183	1586	0.0000347762	4827
183	1590	0.000034899	5363
183	1594	0.0000350218	5899
183	1598	0.0000351446	6435
183	1602	0.0000352674	6971
183	1610	0.0000354824	7507
183	1650	0.0000417092	7747
183	1701	0.0010129085	7747
184	466	0.0000153006	147
184	891	0.0000217218	0
184	919	0.0000219674	0
184	1222	0.0000281262	0
184	1234	0.000028249	0
184	1258	0.0000286174	0
184	1270	0.0000287402	0
184	1578	0.0000345306	0
184	1582	0.0000346534	0
184	1586	0.0000347762	0
184	1590	0.000034899	0
184	1594	0.0000350218	0
184	1598	0.0000351446	0
184	1602	0.0000352674	0
184	1610	0.0000354824	0
184	1650	0.0000417092	0
184	1701	0.0010129085	177
185	466	0.0000153006	0
185	476	0.0000153006	1072
185	891	0.0000217218	536
185	891	0.0000217218	1608
185	919	0.0000219674	1072
185	919	0.0000219674	2144
185	1222	0.0000281262	1608
185	1222	0.0000281262	2680
185	1234	0.000028249	2144
185	1234	0.000028249	3216
185	1258	0.0000286174	2680
185	1258	0.0000286174	3752
185	1270	0.0000287402	3216
185	1270	0.0000287402	4288
185	1578	0.0000345306	3752
185	1582	0.0000346534	3216
185	1586	0.0000347762	2680
185	1590	0.000034899	2144
185	1594	0.0000350218	1608
185	1598	0.0000351446	1072
185	1602	0.0000352674	536
185	1610	0.0000354824	0
185	1610	0.0000354824	240
185	1650	0.0000417092	0
186	466	0.0000153006	1072
186	891	0.0000217218	1608
186	919	0.0000219674	2144
186	1222	0.0000281262	2680
186	1234	0.000028249	3216
186	1258	0.0000286174	3752
186	1270	0.0000287402	4288
186	1578	0.0000345306	4824
186	1582	0.0000346534	5360
186	1586	0.0000347762	5896
186	1590	0.000034899	6432
186	1594	0.0000350218	6968
186	1598	0.0000351446	7504
186	1602	0.0000352674	8040
186	1610	0.0000354824	8576
186	1650	0.0000417092	9112
187	466	0.0000153006	4294967295
187	891	0.0000217218	4294967295
187	919	0.0000219674	4294967295
187	1222	0.0000281262	4294967295
187	1234	0.000028249	4294967295
187	1258	0.0000286174	4294967295
187	1270	0.0000287402	4294967295
187	1578	0.0000345306	4294967295
187	1582	0.0000346534	4294967295
187	1586	0.0000347762	4294967295
187	1590	0.000034899	4294967295
187	1594	0.0000350218	4294967295
187	1598	0.0000351446	4294967295
187	1602	0.0000352674	4294967295
187	1610	0.0000354824	4294967295
187	1650	0.0000417092	4294967295
188	466	0.0000153006	0
188	891	0.0000217218	0
188	919	0.0000219674	0
188	1222	0.0000281262	0
188	1234	0.000028249	0
188	1258	0.0000286174	0
188	1270	0.0000287402	0
188	1578	0.0000345306	0
188	1582	0.0000346534	0
188	1586	0.0000347762	0
188	1590	0.000034899	0
188	1594	0.0000350218	0
188	1598	0.0000351446	0
188	1602	0.0000352674	0
188	1610	0.0000354824	0
188	1650	0.0000417092	0
188	1701	0.0010129085	0
189	467	0.0000153006	170
190	467	0.0000153006	7744
191	474	0.0000153006	147
191	1704	0.0010129085	177
192	474	0.0000153006	1
192	474	0.0000153006	0
192	1704	0.0010129085	1
193	474	0.0000153006	147
194	474	0.0000153006	0
195	474	0.0000153006	147
196	474	0.0000153006	147
197	474	0.0000153006	20
198	474	0.0000153006	7744
199	474	0.0000153006	7744
200	476	0.0000153006	3
200	476	0.0000153006	539
200	891	0.0000217218	1075
200	891	0.0000217218	1611
200	919	0.0000219674	2147
200	919	0.0000219674	2683
200	1222	0.0000281262	3219
200	1222	0.0000281262	3755
200	1234	0.000028249	4291
200	1234	0.000028249	4827
200	1258	0.0000286174	5363
200	1258	0.0000286174	5899
200	1270	0.0000287402	6435
200	1270	0.0000287402	6971
200	1610	0.0000354824	7507
201	488	0.0000153304	1
201	905	0.0000218446	110
201	933	0.0000220902	110
201	1246	0.0000283718	110
201	1252	0.0000284946	110
201	1282	0.000028863	110
201	1288	0.0000289858	110
201	1606	0.000035329	110
201	1690	0.001012124835	110
202	488	0.0000153304	3
202	905	0.0000218446	539
202	933	0.0000220902	1075
202	1246	0.0000283718	1611
202	1252	0.0000284946	2147
202	1282	0.000028863	2683
202	1288	0.0000289858	3219
202	1606	0.000035329	3602
202	1690	0.001012124835	3602
203	488	0.0000153304	109
203	905	0.0000218446	0
203	933	0.0000220902	0
203	1246	0.0000283718	0
203	1252	0.0000284946	0
203	1282	0.000028863	0
203	1288	0.0000289858	0
203	1606	0.000035329	0
203	1690	0.001012124835	181
204	488	0.0000153304	0
204	498	0.0000153304	1072
204	905	0.0000218446	536
204	905	0.0000218446	1608
204	933	0.0000220902	1072
204	933	0.0000220902	2144
204	1246	0.0000283718	1608
204	1252	0.0000284946	1072
204	1282	0.000028863	536
204	1288	0.0000289858	0
204	1288	0.0000289858	383
204	1606	0.000035329	0
205	488	0.0000153304	1072
205	905	0.0000218446	1608
205	933	0.0000220902	2144
205	1246	0.0000283718	2680
205	1252	0.0000284946	3216
205	1282	0.000028863	3752
205	1288	0.0000289858	4288
205	1606	0.000035329	4824
206	488	0.0000153304	4294967295
206	905	0.0000218446	4294967295
206	933	0.0000220902	4294967295
206	1246	0.0000283718	4294967295
206	1252	0.0000284946	4294967295
206	1282	0.000028863	4294967295
206	1288	0.0000289858	4294967295
206	1606	0.000035329	4294967295
207	488	0.0000153304	0
207	905	0.0000218446	0
207	933	0.0000220902	0
207	1246	0.0000283718	0
207	1252	0.0000284946	0
207	1282	0.000028863	0
207	1288	0.0000289858	0
207	1606	0.000035329	0
207	1690	0.001012124835	0
208	489	0.0000153304	586
209	489	0.0000153304	3599
210	496	0.0000153304	109
210	1693	0.001012124835	181
211	496	0.0000153304	1
211	496	0.0000153304	0
211	1693	0.001012124835	1
212	496	0.0000153304	109
213	496	0.0000153304	0
214	496	0.0000153304	109
215	496	0.0000153304	109
216	496	0.0000153304	17
217	496	0.0000153304	3599
218	496	0.0000153304	3599
219	498	0.0000153304	3
219	498	0.0000153304	539
219	905	0.0000218446	1075
219	905	0.0000218446	1611
219	933	0.0000220902	2147
219	933	0.0000220902	2683
219	1288	0.0000289858	3219
220	662	0.0000183438	6.171e-06
220	1736	0.0010159517	6.189e-06
221	662	0.0000183438	7.71375e-07
221	1736	0.0010159517	1.448578e-06
222	662	0.0000183438	0.656250771375
222	1736	0.0010159517	0.574220102156
223	662	0.0000183438	2.625003856875
223	1736	0.0010159517	2.296881857202
224	662	0.0000183438	1072
224	1736	0.0010159517	1608
225	662	0.0000183438	4294967295
225	1736	0.0010159517	4294967295
226	662	0.0000183438	0
226	682	0.0000186786	0
226	706	0.0000189242	0
226	1050	0.000025083	0
226	1061	0.0000252058	0
226	1094	0.0000255742	0
226	1105	0.000025697	0
226	1389	0.0000314874	0
226	1400	0.0000316102	0
226	1411	0.000031733	0
226	1422	0.0000318558	0
226	1433	0.0000319786	0
226	1444	0.0000321014	0
226	1455	0.0000322242	0
226	1477	0.0000324392	0
226	1629	0.000038666	0
226	1736	0.0010159517	0
227	669	0.0000183736	6.184e-06
227	1732	0.001015168035	6.1914e-06
228	669	0.0000183736	7.73e-07
228	1732	0.001015168035	1.4503e-06
229	669	0.0000183736	0.656250773
229	1732	0.001015168035	0.574220103675
230	669	0.0000183736	2.625003865
230	1732	0.001015168035	2.296881865
231	669	0.0000183736	1072
231	1732	0.001015168035	1608
232	669	0.0000183736	4294967295
232	1732	0.001015168035	4294967295
233	669	0.0000183736	0
233	694	0.0000188014	0
233	721	0.000019047	0
233	1072	0.0000253286	0
233	1083	0.0000254514	0
233	1116	0.0000258198	0
233	1127	0.0000259426	0
233	1466	0.0000322858	0
233	1732	0.001015168035	0
234	685	0.0000186786	536
234	709	0.0000189242	536
234	1053	0.000025083	536
234	1064	0.0000252058	536
234	1097	0.0000255742	536
234	1108	0.000025697	536
234	1392	0.0000314874	536
234	1403	0.0000316102	536
234	1414	0.000031733	536
234	1425	0.0000318558	536
234	1436	0.0000319786	536
234	1447	0.0000321014	536
234	1458	0.0000322242	536
234	1480	0.0000324392	536
234	1632	0.000038666	240
235	685	0.0000186786	536
235	709	0.0000189242	536
235	1053	0.000025083	536
235	1064	0.0000252058	536
235	1097	0.0000255742	536
235	1108	0.000025697	536
235	1392	0.0000314874	536
235	1403	0.0000316102	536
235	1414	0.000031733	536
235	1425	0.0000318558	536
235	1436	0.0000319786	536
235	1447	0.0000321014	536
235	1458	0.0000322242	536
235	1480	0.0000324392	536
235	1632	0.000038666	240
236	697	0.0000188014	536
236	728	0.000019047	536
236	1075	0.0000253286	536
236	1086	0.0000254514	536
236	1119	0.0000258198	536
236	1130	0.0000259426	536
236	1469	0.0000322858	383
237	697	0.0000188014	536
237	728	0.000019047	536
237	1075	0.0000253286	536
237	1086	0.0000254514	536
237	1119	0.0000258198	536
237	1130	0.0000259426	536
237	1469	0.0000322858	383
238	891	0.0000217218	6.4212e-06
238	1222	0.0000281262	6.4044e-06
238	1578	0.0000345306	6.4044e-06
238	1650	0.0000417092	6.2268e-06
239	891	0.0000217218	8.0265e-07
239	1222	0.0000281262	1.502869e-06
239	1578	0.0000345306	2.11556e-06
239	1650	0.0000417092	2.629465e-06
240	891	0.0000217218	0.65625080265
240	1222	0.0000281262	0.574220152538
240	1578	0.0000345306	0.502443246162
240	1650	0.0000417092	0.439638354297
241	891	0.0000217218	2.62500401325
241	1222	0.0000281262	2.296882113021
241	1578	0.0000345306	2.009775100208
241	1650	0.0000417092	1.758556046653
242	905	0.0000218446	6.5142e-06
242	1246	0.0000283718	6.5272e-06
242	1606	0.000035329	6.3432e-06
243	905	0.0000218446	8.14275e-07
243	1246	0.0000283718	1.528391e-06
243	1606	0.000035329	2.130242e-06
244	905	0.0000218446	0.656250814275
244	1246	0.0000283718	0.574220176606
244	1606	0.000035329	0.502443256381
245	905	0.0000218446	2.625004071375
245	1246	0.0000283718	2.296882234815
245	1606	0.000035329	2.009775155766
1	1770	0.001986279008	169
2	1803	0.002022585548	147
7	1772	0.001986279008	0
8	1772	0.001986279008	14380
9	1772	0.001986279008	7504
10	1772	0.001986279008	6876
11	1805	0.002022585548	0
12	1805	0.002022585548	11106
13	1805	0.002022585548	7504
14	1805	0.002022585548	3602
17	1774	0.001986279008	209
18	1757	0.001070927549	40
18	1790	0.001988373008	40
18	1807	0.002022585548	187
19	1742	0.001068853149	178
19	1775	0.001986279008	227
20	1742	0.001068853149	178
20	1775	0.001986279008	227
21	1742	0.001068853149	1
21	1742	0.001068853149	0
21	1775	0.001986279008	1
21	1775	0.001986279008	0
22	1742	0.001068853149	178
22	1775	0.001986279008	227
23	1742	0.001068853149	0
23	1775	0.001986279008	0
24	1758	0.001070927549	58
24	1791	0.001988373008	58
24	1808	0.002022585548	205
25	1758	0.001070927549	58
25	1791	0.001988373008	58
25	1808	0.002022585548	205
26	1758	0.001070927549	1
26	1758	0.001070927549	0
26	1791	0.001988373008	1
26	1791	0.001988373008	0
26	1808	0.002022585548	1
26	1808	0.002022585548	0
27	1758	0.001070927549	58
27	1791	0.001988373008	58
27	1808	0.002022585548	205
28	1758	0.001070927549	0
28	1791	0.001988373008	0
28	1808	0.002022585548	0
29	1743	0.001068890349	178
29	1776	0.001986326008	227
30	1759	0.001070941949	64
30	1792	0.001988387408	64
30	1809	0.002022628148	205
31	1745	0.001069890349	178
31	1778	0.001987326008	227
32	1745	0.001069890349	178
32	1778	0.001987326008	227
33	1761	0.001071941949	64
33	1794	0.001989387408	64
33	1811	0.002023628148	205
34	1761	0.001071941949	64
34	1794	0.001989387408	64
34	1811	0.002023628148	205
35	1747	0.001069890349	178
35	1780	0.001987326008	227
36	1747	0.001069890349	178
36	1780	0.001987326008	227
37	1747	0.001069890349	1
37	1747	0.001069890349	0
37	1780	0.001987326008	1
37	1780	0.001987326008	0
38	1747	0.001069890349	178
38	1780	0.001987326008	227
39	1747	0.001069890349	0
39	1780	0.001987326008	0
40	1813	0.002023628148	205
41	1813	0.002023628148	205
42	1813	0.002023628148	1
42	1813	0.002023628148	0
43	1813	0.002023628148	205
44	1813	0.002023628148	0
45	1763	0.001071941949	64
45	1796	0.001989387408	64
46	1763	0.001071941949	64
46	1796	0.001989387408	64
47	1763	0.001071941949	1
47	1763	0.001071941949	0
47	1796	0.001989387408	1
47	1796	0.001989387408	0
48	1763	0.001071941949	64
48	1796	0.001989387408	64
49	1763	0.001071941949	0
49	1796	0.001989387408	0
50	1748	0.001069927549	178
50	1781	0.001987373008	227
51	1814	0.002023670748	205
52	1764	0.001071956349	64
52	1797	0.001989401808	64
53	1750	0.001070927549	178
53	1783	0.001988373008	227
54	1750	0.001070927549	178
54	1783	0.001988373008	227
55	1816	0.002024670748	205
56	1816	0.002024670748	205
57	1766	0.001072956349	64
57	1799	0.001990401808	64
58	1766	0.001072956349	64
58	1799	0.001990401808	64
59	1751	0.001070927549	160
59	1784	0.001988373008	209
60	1767	0.001072956349	46
60	1800	0.001990401808	46
61	1818	0.002024670748	205
62	1818	0.002024670748	205
63	1818	0.002024670748	1
63	1818	0.002024670748	0
64	1818	0.002024670748	205
65	1818	0.002024670748	0
71	1819	0.002024713348	205
74	1821	0.002025713348	205
75	1821	0.002025713348	205
78	1822	0.002025713348	187
106	1753	0.001070927549	7792
106	1786	0.001988373008	7961
108	1753	0.001070927549	0
108	1753	0.001070927549	0
108	1786	0.001988373008	0
108	1786	0.001988373008	0
109	1753	0.001070927549	7504
109	1786	0.001988373008	7504
110	1753	0.001070927549	288
110	1786	0.001988373008	457
116	1769	0.001072956349	6876
116	1802	0.001990401808	6876
117	1769	0.001072956349	288
117	1802	0.001990401808	457
118	1769	0.001072956349	0
118	1802	0.001990401808	0
119	1769	0.001072956349	7504
119	1802	0.001990401808	7504
120	1772	0.001986279008	288
121	1769	0.001072956349	0
121	1772	0.001986279008	169
121	1802	0.001990401808	0
122	1753	0.001070927549	168
122	1786	0.001988373008	288
123	1753	0.001070927549	6876
123	1786	0.001988373008	6876
124	1753	0.001070927549	120
124	1786	0.001988373008	169
128	1753	0.001070927549	0
128	1786	0.001988373008	0
131	1756	0.001070927549	120
131	1789	0.001988373008	169
132	1756	0.001070927549	1
132	1789	0.001988373008	2
157	1769	0.001072956349	4.1032e-06
157	1802	0.001990401808	4.1228e-06
158	1769	0.001072956349	9.63744e-07
158	1802	0.001990401808	1.358626e-06
159	1769	0.001072956349	0.574219649338
159	1802	0.001990401808	0.502442588053
160	1769	0.001072956349	2.296879561096
160	1802	0.001990401808	2.009771710838
161	1769	0.001072956349	1608
161	1802	0.001990401808	2144
162	1769	0.001072956349	4294967295
162	1802	0.001990401808	4294967295
163	1769	0.001072956349	0
163	1802	0.001990401808	0
176	1805	0.002022585548	291
177	1805	0.002022585548	147
89	1828	0.002025713348	40
90	1829	0.002025713348	58
91	1829	0.002025713348	58
92	1829	0.002025713348	1
92	1829	0.002025713348	0
93	1829	0.002025713348	58
94	1829	0.002025713348	0
95	1830	0.002025727748	64
152	1824	0.002025713348	7942
154	1824	0.002025713348	0
154	1824	0.002025713348	0
155	1824	0.002025713348	7504
156	1824	0.002025713348	438
201	1824	0.002025713348	291
202	1824	0.002025713348	3602
203	1824	0.002025713348	147
207	1824	0.002025713348	0
210	1827	0.002025713348	147
211	1827	0.002025713348	2

