version 3
run UDP-0-20210915-13:33:20-36572
attr configname UDP
attr datetime 20210915-13:33:20
attr datetimef 20210915-133320
attr experiment UDP
attr inifile Red4Tcp.ini
attr iterationvars ""
attr iterationvarsd ""
attr iterationvarsf ""
attr measurement ""
attr network Red4Tcp
attr processid 36572
attr repetition 0
attr replication #0
attr resultdir results
attr runnumber 0
attr seedset 0
config debug-on-errors true
config image-path ../../inet/images
config **.eth[*].duplexMode true
config **.ppp[*].ppp.queue.typename DropTailQueue
config **.h*.numApps 1
config **.h*.app[0].typename TcpBasicClientApp
config **.h*.app[0].localPort 1000
config **.hA.app[0].connectAddress "\"hB\""
config **.hA.app[0].connectPort 1000
config **.hC.app[0].connectAddress "\"hB\""
config **.hC.app[0].connectPort 1000
config **.h*.app[0].thinkTime 0.01s
config network Red4Tcp
config sim-time-limit 2s

par Red4Tcp.hA.ethg$o[0].channel typename "\"Red4Tcp.cable\""
par Red4Tcp.hA.ethg$o[0].channel disabled false
par Red4Tcp.hA.ethg$o[0].channel delay 1e-06s
attr unit s
par Red4Tcp.hA.ethg$o[0].channel datarate 4e+10bps
attr unit bps
par Red4Tcp.hA.ethg$o[0].channel ber 0
par Red4Tcp.hA.ethg$o[0].channel per 0
par Red4Tcp.switch1.ethg$o[0].channel typename "\"Red4Tcp.cable\""
par Red4Tcp.switch1.ethg$o[0].channel disabled false
par Red4Tcp.switch1.ethg$o[0].channel delay 1e-06s
attr unit s
par Red4Tcp.switch1.ethg$o[0].channel datarate 4e+10bps
attr unit bps
par Red4Tcp.switch1.ethg$o[0].channel ber 0
par Red4Tcp.switch1.ethg$o[0].channel per 0
par Red4Tcp.hB.ethg$o[0].channel typename "\"Red4Tcp.cable\""
par Red4Tcp.hB.ethg$o[0].channel disabled false
par Red4Tcp.hB.ethg$o[0].channel delay 1e-06s
attr unit s
par Red4Tcp.hB.ethg$o[0].channel datarate 4e+10bps
attr unit bps
par Red4Tcp.hB.ethg$o[0].channel ber 0
par Red4Tcp.hB.ethg$o[0].channel per 0
par Red4Tcp.switch1.ethg$o[1].channel typename "\"Red4Tcp.cable\""
par Red4Tcp.switch1.ethg$o[1].channel disabled false
par Red4Tcp.switch1.ethg$o[1].channel delay 1e-06s
attr unit s
par Red4Tcp.switch1.ethg$o[1].channel datarate 4e+10bps
attr unit bps
par Red4Tcp.switch1.ethg$o[1].channel ber 0
par Red4Tcp.switch1.ethg$o[1].channel per 0
par Red4Tcp.hC.ethg$o[0].channel typename "\"Red4Tcp.cable\""
par Red4Tcp.hC.ethg$o[0].channel disabled false
par Red4Tcp.hC.ethg$o[0].channel delay 1e-06s
attr unit s
par Red4Tcp.hC.ethg$o[0].channel datarate 4e+10bps
attr unit bps
par Red4Tcp.hC.ethg$o[0].channel ber 0
par Red4Tcp.hC.ethg$o[0].channel per 0
par Red4Tcp.switch2.ethg$o[0].channel typename "\"Red4Tcp.cable\""
par Red4Tcp.switch2.ethg$o[0].channel disabled false
par Red4Tcp.switch2.ethg$o[0].channel delay 1e-06s
attr unit s
par Red4Tcp.switch2.ethg$o[0].channel datarate 4e+10bps
attr unit bps
par Red4Tcp.switch2.ethg$o[0].channel ber 0
par Red4Tcp.switch2.ethg$o[0].channel per 0
par Red4Tcp.hD.ethg$o[0].channel typename "\"Red4Tcp.cable\""
par Red4Tcp.hD.ethg$o[0].channel disabled false
par Red4Tcp.hD.ethg$o[0].channel delay 1e-06s
attr unit s
par Red4Tcp.hD.ethg$o[0].channel datarate 4e+10bps
attr unit bps
par Red4Tcp.hD.ethg$o[0].channel ber 0
par Red4Tcp.hD.ethg$o[0].channel per 0
par Red4Tcp.switch2.ethg$o[1].channel typename "\"Red4Tcp.cable\""
par Red4Tcp.switch2.ethg$o[1].channel disabled false
par Red4Tcp.switch2.ethg$o[1].channel delay 1e-06s
attr unit s
par Red4Tcp.switch2.ethg$o[1].channel datarate 4e+10bps
attr unit bps
par Red4Tcp.switch2.ethg$o[1].channel ber 0
par Red4Tcp.switch2.ethg$o[1].channel per 0
par Red4Tcp.switch1.ethg$o[2].channel typename "\"Red4Tcp.cable\""
par Red4Tcp.switch1.ethg$o[2].channel disabled false
par Red4Tcp.switch1.ethg$o[2].channel delay 1e-06s
attr unit s
par Red4Tcp.switch1.ethg$o[2].channel datarate 4e+10bps
attr unit bps
par Red4Tcp.switch1.ethg$o[2].channel ber 0
par Red4Tcp.switch1.ethg$o[2].channel per 0
par Red4Tcp.switch2.ethg$o[2].channel typename "\"Red4Tcp.cable\""
par Red4Tcp.switch2.ethg$o[2].channel disabled false
par Red4Tcp.switch2.ethg$o[2].channel delay 1e-06s
attr unit s
par Red4Tcp.switch2.ethg$o[2].channel datarate 4e+10bps
attr unit bps
par Red4Tcp.switch2.ethg$o[2].channel ber 0
par Red4Tcp.switch2.ethg$o[2].channel per 0
par Red4Tcp.hA.ethg$i[0].channel typename "\"ned.IdealChannel\""
par Red4Tcp.hA.eth[0].phys$o.channel typename "\"ned.IdealChannel\""
par Red4Tcp.hA.interfaceTable typename "\"inet.networklayer.common.InterfaceTable\""
par Red4Tcp.hA.interfaceTable displayAddresses false
par Red4Tcp.hA.li typename "\"inet.common.MessageDispatcher\""
par Red4Tcp.hA.li displayStringTextFormat "\"processed %p pk (%l)\""
par Red4Tcp.hA.lo[0].upperLayerIn.channel typename "\"ned.IdealChannel\""
par Red4Tcp.hA.lo[0].lo.upperLayerOut.channel typename "\"ned.IdealChannel\""
par Red4Tcp.hA.lo[0].lo typename "\"inet.linklayer.loopback.Loopback\""
par Red4Tcp.hA.lo[0].lo interfaceTableModule "\"Red4Tcp.hA.interfaceTable\""
par Red4Tcp.hA.lo[0].lo mtu 4470B
attr unit B
scalar Red4Tcp.hA.lo[0].lo rcvdPkFromHl:count 0
attr interpolationmode none
attr source packetReceivedFromUpper
attr title "packets received from higher layer, count"
scalar Red4Tcp.hA.lo[0].lo rcvdPkFromHl:sum(packetBytes) 0
attr interpolationmode none
attr source packetReceivedFromUpper
attr title "packets received from higher layer, sum(packetBytes)"
scalar Red4Tcp.hA.lo[0].lo passedUpPk:count 0
attr interpolationmode none
attr source packetSentToUpper
attr title "packets passed to higher layer, count"
scalar Red4Tcp.hA.lo[0].lo passedUpPk:sum(packetBytes) 0
attr interpolationmode none
attr source packetSentToUpper
attr title "packets passed to higher layer, sum(packetBytes)"
par Red4Tcp.hA.lo[0] typename "\"inet.linklayer.loopback.LoopbackInterface\""
par Red4Tcp.hA.lo[0] displayStringTextFormat "\"%a (%i)\\n%m\""
par Red4Tcp.hA.lo[0] recordPcap false
par Red4Tcp.hA.lo[0] numPcapRecorders 0
par Red4Tcp.hA.lo[0] interfaceTableModule "\"Red4Tcp.hA.interfaceTable\""
par Red4Tcp.hA.eth[0].mac.phys$o.channel typename "\"ned.IdealChannel\""
par Red4Tcp.hA.eth[0].phys$i.channel typename "\"ned.IdealChannel\""
par Red4Tcp.hA.eth[0].encap.upperLayerOut.channel typename "\"ned.IdealChannel\""
par Red4Tcp.hA.eth[0].upperLayerIn.channel typename "\"ned.IdealChannel\""
par Red4Tcp.hA.eth[0].encap typename "\"inet.linklayer.ethernet.basic.EthernetEncapsulation\""
par Red4Tcp.hA.eth[0].encap interfaceTableModule "\"Red4Tcp.hA.interfaceTable\""
par Red4Tcp.hA.eth[0].encap useSNAP false
par Red4Tcp.hA.eth[0].encap fcsMode "\"declared\""
attr enum declared,computed
par Red4Tcp.hA.eth[0].encap registerProtocol false
par Red4Tcp.hA.eth[0].encap stopOperationExtraTime -1s
attr unit s
par Red4Tcp.hA.eth[0].encap stopOperationTimeout 2s
attr unit s
scalar Red4Tcp.hA.eth[0].encap pauseSent:count 0
attr title "pause sent, count"
scalar Red4Tcp.hA.eth[0].encap pauseSent:sum 0
attr title "pause sent, sum"
scalar Red4Tcp.hA.eth[0].encap decapPk:count 471
attr interpolationmode none
attr source decapPk
attr title "packets decapsulated, count"
scalar Red4Tcp.hA.eth[0].encap decapPk:sum(packetBytes) 21666
attr interpolationmode none
attr source decapPk
attr title "packets decapsulated, sum(packetBytes)"
scalar Red4Tcp.hA.eth[0].encap encapPk:count 471
attr interpolationmode none
attr source encapPk
attr title "packets encapsulated, count"
scalar Red4Tcp.hA.eth[0].encap encapPk:sum(packetBytes) 20708
attr interpolationmode none
attr source encapPk
attr title "packets encapsulated, sum(packetBytes)"
par Red4Tcp.hA.eth[0].mac.queue typename "\"inet.linklayer.ethernet.common.EthernetQueue\""
par Red4Tcp.hA.eth[0].mac.queue displayStringTextFormat "\"contains %p pk (%l) pushed %u\\npulled %o removed %r dropped %d\""
par Red4Tcp.hA.eth[0].mac.queue packetCapacity 10000
par Red4Tcp.hA.eth[0].mac.queue dataCapacity -1b
attr unit b
par Red4Tcp.hA.eth[0].mac.queue dropperClass "\"inet::queueing::PacketAtCollectionEndDropper\""
par Red4Tcp.hA.eth[0].mac.queue comparatorClass "\"inet::EthernetFrameTypeComparator\""
par Red4Tcp.hA.eth[0].mac.queue bufferModule "\"\""
scalar Red4Tcp.hA.eth[0].mac.queue packetPulled:count 471
attr interpolationmode none
attr title "packet pulled, count"
scalar Red4Tcp.hA.eth[0].mac.queue packetPulled:sum(packetBytes) 29186
attr interpolationmode none
attr title "packet pulled, sum(packetBytes)"
statistic Red4Tcp.hA.eth[0].mac.queue queueingTime:histogram
field count 471
field mean 0
field stddev 0
field min 0
field max 0
field sum 0
field sqrsum 0
attr interpolationmode none
attr source queueingTime(packetPulled)
attr title "queueing times, histogram"
attr unit s
bin	-inf	0
bin	-0.5	0
bin	-0.48	0
bin	-0.46	0
bin	-0.44	0
bin	-0.42	0
bin	-0.4	0
bin	-0.38	0
bin	-0.36	0
bin	-0.34	0
bin	-0.32	0
bin	-0.3	0
bin	-0.28	0
bin	-0.26	0
bin	-0.24	0
bin	-0.22	0
bin	-0.2	0
bin	-0.18	0
bin	-0.16	0
bin	-0.14	0
bin	-0.12	0
bin	-0.1	0
bin	-0.08	0
bin	-0.06	0
bin	-0.04	0
bin	-0.02	0
bin	0	471
bin	0.02	0
bin	0.04	0
bin	0.06	0
bin	0.08	0
bin	0.1	0
bin	0.12	0
bin	0.14	0
bin	0.16	0
bin	0.18	0
bin	0.2	0
bin	0.22	0
bin	0.24	0
bin	0.26	0
bin	0.28	0
bin	0.3	0
bin	0.32	0
bin	0.34	0
bin	0.36	0
bin	0.38	0
bin	0.4	0
bin	0.42	0
bin	0.44	0
bin	0.46	0
bin	0.48	0
bin	0.5	0
scalar Red4Tcp.hA.eth[0].mac.queue queueLength:max 1
attr autoWarmupFilter false
attr interpolationmode sample-hold
attr source "warmup(count(packetPushed) - count(packetPulled) - count(packetRemoved) - count(packetDropped))"
attr title "queue length, max"
attr type int
scalar Red4Tcp.hA.eth[0].mac.queue queueLength:timeavg 0
attr autoWarmupFilter false
attr interpolationmode sample-hold
attr source "warmup(count(packetPushed) - count(packetPulled) - count(packetRemoved) - count(packetDropped))"
attr title "queue length, timeavg"
attr type int
scalar Red4Tcp.hA.eth[0].mac.queue packetPushed:count 471
attr interpolationmode none
attr title "packet pushed, count"
scalar Red4Tcp.hA.eth[0].mac.queue packetPushed:sum(packetBytes) 29186
attr interpolationmode none
attr title "packet pushed, sum(packetBytes)"
scalar Red4Tcp.hA.eth[0].mac.queue packetDropQueueOverflow:count 0
attr interpolationmode none
attr source packetDropReasonIsQueueOverflow(packetDropped)
attr title "packet drops: queue overflow, count"
scalar Red4Tcp.hA.eth[0].mac.queue packetDropQueueOverflow:sum(packetBytes) 0
attr interpolationmode none
attr source packetDropReasonIsQueueOverflow(packetDropped)
attr title "packet drops: queue overflow, sum(packetBytes)"
scalar Red4Tcp.hA.eth[0].mac.queue packetRemoved:count 0
attr interpolationmode none
attr title "packets removed, count"
scalar Red4Tcp.hA.eth[0].mac.queue packetRemoved:sum(packetBytes) 0
attr interpolationmode none
attr title "packets removed, sum(packetBytes)"
par Red4Tcp.hA.eth[0].mac typename "\"inet.linklayer.ethernet.basic.EthernetMac\""
par Red4Tcp.hA.eth[0].mac interfaceTableModule "\"Red4Tcp.hA.interfaceTable\""
par Red4Tcp.hA.eth[0].mac displayStringTextFormat "\"rate: %b\\nsent: %s, rcvd: %r\\nqueue: %q, drop: %d\""
par Red4Tcp.hA.eth[0].mac sendRawBytes false
par Red4Tcp.hA.eth[0].mac promiscuous false
par Red4Tcp.hA.eth[0].mac duplexMode true
par Red4Tcp.hA.eth[0].mac mtu 1500B
attr unit B
par Red4Tcp.hA.eth[0].mac stopOperationExtraTime -1s
attr unit s
par Red4Tcp.hA.eth[0].mac stopOperationTimeout 2s
attr unit s
scalar Red4Tcp.hA.eth[0].mac "simulated time" 1.0019091008
scalar Red4Tcp.hA.eth[0].mac full-duplex 1
scalar Red4Tcp.hA.eth[0].mac "frames/sec sent" 470.10252688983
scalar Red4Tcp.hA.eth[0].mac "frames/sec rcvd" 470.10252688983
scalar Red4Tcp.hA.eth[0].mac "bits/sec sent" 240692.49376759
scalar Red4Tcp.hA.eth[0].mac "bits/sec rcvd" 240692.49376759
scalar Red4Tcp.hA.eth[0].mac "rx channel idle (%)" 99.999323052361
scalar Red4Tcp.hA.eth[0].mac "rx channel utilization (%)" 0.00067694763872136
scalar Red4Tcp.hA.eth[0].mac rxPausePkUnits:count 0
attr interpolationmode none
attr title "pause units received, count"
scalar Red4Tcp.hA.eth[0].mac rxPausePkUnits:sum 0
attr interpolationmode none
attr title "pause units received, sum"
scalar Red4Tcp.hA.eth[0].mac txPausePkUnits:count 0
attr interpolationmode none
attr title "pause units sent, count"
scalar Red4Tcp.hA.eth[0].mac txPausePkUnits:sum 0
attr interpolationmode none
attr title "pause units sent, sum"
scalar Red4Tcp.hA.eth[0].mac rxPkOk:count 471
attr interpolationmode none
attr source rxPkOk
attr title "packets received OK, count"
scalar Red4Tcp.hA.eth[0].mac rxPkOk:sum(packetBytes) 30144
attr interpolationmode none
attr source rxPkOk
attr title "packets received OK, sum(packetBytes)"
scalar Red4Tcp.hA.eth[0].mac txPk:count 471
attr interpolationmode none
attr source packetSentToLower
attr title "packets transmitted, count"
scalar Red4Tcp.hA.eth[0].mac txPk:sum(packetBytes) 30144
attr interpolationmode none
attr source packetSentToLower
attr title "packets transmitted, sum(packetBytes)"
scalar Red4Tcp.hA.eth[0].mac packetReceivedFromUpper:count 471
attr interpolationmode none
attr source packetReceivedFromUpper
attr title "packet bytes from higher layer, count"
scalar Red4Tcp.hA.eth[0].mac packetReceivedFromUpper:sum(packetBytes) 29186
attr interpolationmode none
attr source packetReceivedFromUpper
attr title "packet bytes from higher layer, sum(packetBytes)"
scalar Red4Tcp.hA.eth[0].mac passedUpPk:count 471
attr interpolationmode none
attr source packetSentToUpper
attr title "packets passed to higher layer, count"
scalar Red4Tcp.hA.eth[0].mac passedUpPk:sum(packetBytes) 30144
attr interpolationmode none
attr source packetSentToUpper
attr title "packets passed to higher layer, sum(packetBytes)"
scalar Red4Tcp.hA.eth[0].mac packetDropIncorrectlyReceived:count 0
attr interpolationmode none
attr source packetDropReasonIsIncorrectlyReceived(packetDropped)
attr title "packet drop: incorrectly received, count"
scalar Red4Tcp.hA.eth[0].mac packetDropIncorrectlyReceived:sum(packetBytes) 0
attr interpolationmode none
attr source packetDropReasonIsIncorrectlyReceived(packetDropped)
attr title "packet drop: incorrectly received, sum(packetBytes)"
scalar Red4Tcp.hA.eth[0].mac packetDropInterfaceDown:count 0
attr interpolationmode none
attr source packetDropReasonIsInterfaceDown(packetDropped)
attr title "packet drop: interface down, count"
scalar Red4Tcp.hA.eth[0].mac packetDropInterfaceDown:sum(packetBytes) 0
attr interpolationmode none
attr source packetDropReasonIsInterfaceDown(packetDropped)
attr title "packet drop: interface down, sum(packetBytes)"
scalar Red4Tcp.hA.eth[0].mac packetDropNotAddressedToUs:count 0
attr interpolationmode none
attr source packetDropReasonIsNotAddressedToUs(packetDropped)
attr title "packet drop: not addressed to us, count"
scalar Red4Tcp.hA.eth[0].mac packetDropNotAddressedToUs:sum(packetBytes) 0
attr interpolationmode none
attr source packetDropReasonIsNotAddressedToUs(packetDropped)
attr title "packet drop: not addressed to us, sum(packetBytes)"
par Red4Tcp.hA.eth[0] typename "\"inet.linklayer.ethernet.EthernetInterface\""
par Red4Tcp.hA.eth[0] displayStringTextFormat "\"%a (%i)\\n%m\""
par Red4Tcp.hA.eth[0] recordPcap false
par Red4Tcp.hA.eth[0] numPcapRecorders 0
par Red4Tcp.hA.eth[0] interfaceTableModule "\"Red4Tcp.hA.interfaceTable\""
par Red4Tcp.hA.eth[0] address "\"0A-AA-00-00-00-01\""
par Red4Tcp.hA.eth[0] duplexMode true
par Red4Tcp.hA.eth[0] csmacdSupport false
par Red4Tcp.hA.eth[0] bitrate 0bps
attr unit bps
par Red4Tcp.hA.eth[0] fcsMode "\"declared\""
attr enum declared,computed
par Red4Tcp.hA.ipv4.transportIn.channel typename "\"ned.IdealChannel\""
par Red4Tcp.hA.ipv4.up.out[0].channel typename "\"ned.IdealChannel\""
par Red4Tcp.hA.ipv4.lp.out[2].channel typename "\"ned.IdealChannel\""
par Red4Tcp.hA.ipv4.ifIn.channel typename "\"ned.IdealChannel\""
par Red4Tcp.hA.ipv4.configurator typename "\"inet.networklayer.configurator.ipv4.Ipv4NodeConfigurator\""
par Red4Tcp.hA.ipv4.configurator interfaceTableModule "\"Red4Tcp.hA.interfaceTable\""
par Red4Tcp.hA.ipv4.configurator routingTableModule "\"Red4Tcp.hA.ipv4.routingTable\""
par Red4Tcp.hA.ipv4.configurator networkConfiguratorModule "\"configurator\""
par Red4Tcp.hA.ipv4.configurator configureRoutingTable true
par Red4Tcp.hA.ipv4.routingTable typename "\"inet.networklayer.ipv4.Ipv4RoutingTable\""
par Red4Tcp.hA.ipv4.routingTable interfaceTableModule "\"Red4Tcp.hA.interfaceTable\""
par Red4Tcp.hA.ipv4.routingTable routerId "\"auto\""
par Red4Tcp.hA.ipv4.routingTable netmaskRoutes "\"*\""
par Red4Tcp.hA.ipv4.routingTable forwarding false
par Red4Tcp.hA.ipv4.routingTable multicastForwarding false
par Red4Tcp.hA.ipv4.routingTable useAdminDist false
par Red4Tcp.hA.ipv4.routingTable routingFile "\"\""
par Red4Tcp.hA.ipv4.natTable typename "\"inet.networklayer.ipv4.Ipv4NatTable\""
par Red4Tcp.hA.ipv4.natTable networkProtocolModule "\"^.ip\""
par Red4Tcp.hA.ipv4.natTable config "<config/> at content:1"
par Red4Tcp.hA.ipv4.up typename "\"inet.common.MessageDispatcher\""
par Red4Tcp.hA.ipv4.up displayStringTextFormat "\"processed %p pk (%l)\""
par Red4Tcp.hA.ipv4.igmp typename "\"inet.networklayer.ipv4.Igmpv2\""
par Red4Tcp.hA.ipv4.igmp interfaceTableModule "\"Red4Tcp.hA.interfaceTable\""
par Red4Tcp.hA.ipv4.igmp routingTableModule "\"Red4Tcp.hA.ipv4.routingTable\""
par Red4Tcp.hA.ipv4.igmp crcMode "\"declared\""
attr enum declared,computed
par Red4Tcp.hA.ipv4.igmp enabled true
par Red4Tcp.hA.ipv4.igmp robustnessVariable 2
par Red4Tcp.hA.ipv4.igmp queryInterval 125s
attr unit s
par Red4Tcp.hA.ipv4.igmp queryResponseInterval 10s
attr unit s
par Red4Tcp.hA.ipv4.igmp groupMembershipInterval 260s
attr unit s
par Red4Tcp.hA.ipv4.igmp otherQuerierPresentInterval 255s
attr unit s
par Red4Tcp.hA.ipv4.igmp startupQueryInterval 31.25s
attr unit s
par Red4Tcp.hA.ipv4.igmp startupQueryCount 2
par Red4Tcp.hA.ipv4.igmp lastMemberQueryInterval 1s
attr unit s
par Red4Tcp.hA.ipv4.igmp lastMemberQueryCount 2
par Red4Tcp.hA.ipv4.igmp unsolicitedReportInterval 10s
attr unit s
par Red4Tcp.hA.ipv4.icmp typename "\"inet.networklayer.ipv4.Icmp\""
par Red4Tcp.hA.ipv4.icmp interfaceTableModule "\"Red4Tcp.hA.interfaceTable\""
par Red4Tcp.hA.ipv4.icmp routingTableModule "\"Red4Tcp.hA.ipv4.routingTable\""
par Red4Tcp.hA.ipv4.icmp crcMode "\"declared\""
attr enum declared,computed
par Red4Tcp.hA.ipv4.icmp quoteLength 8B
attr unit B
par Red4Tcp.hA.ipv4.mp typename "\"inet.common.MessageDispatcher\""
par Red4Tcp.hA.ipv4.mp displayStringTextFormat "\"processed %p pk (%l)\""
par Red4Tcp.hA.ipv4.ip typename "\"inet.networklayer.ipv4.Ipv4\""
par Red4Tcp.hA.ipv4.ip interfaceTableModule "\"Red4Tcp.hA.interfaceTable\""
par Red4Tcp.hA.ipv4.ip routingTableModule "\"Red4Tcp.hA.ipv4.routingTable\""
par Red4Tcp.hA.ipv4.ip arpModule "\"Red4Tcp.hA.ipv4.arp\""
par Red4Tcp.hA.ipv4.ip icmpModule "\"Red4Tcp.hA.ipv4.icmp\""
par Red4Tcp.hA.ipv4.ip crcMode "\"declared\""
attr enum declared,computed
par Red4Tcp.hA.ipv4.ip timeToLive 32
par Red4Tcp.hA.ipv4.ip multicastTimeToLive 32
par Red4Tcp.hA.ipv4.ip fragmentTimeout 60s
attr unit s
par Red4Tcp.hA.ipv4.ip limitedBroadcast false
par Red4Tcp.hA.ipv4.ip directBroadcastInterfaces "\"\""
scalar Red4Tcp.hA.ipv4.ip packetDropAddressResolutionFailed:count 0
attr interpolationmode none
attr source packetDropReasonIsAddressResolutionFailed(packetDropped)
attr title "packet drop: address resolution failed, count"
scalar Red4Tcp.hA.ipv4.ip packetDropAddressResolutionFailed:sum(packetBytes) 0
attr interpolationmode none
attr source packetDropReasonIsAddressResolutionFailed(packetDropped)
attr title "packet drop: address resolution failed, sum(packetBytes)"
scalar Red4Tcp.hA.ipv4.ip packetDropHopLimitReached:count 0
attr interpolationmode none
attr source packetDropReasonIsHopLimitReached(packetDropped)
attr title "packet drop: hop limit reached, count"
scalar Red4Tcp.hA.ipv4.ip packetDropHopLimitReached:sum(packetBytes) 0
attr interpolationmode none
attr source packetDropReasonIsHopLimitReached(packetDropped)
attr title "packet drop: hop limit reached, sum(packetBytes)"
scalar Red4Tcp.hA.ipv4.ip packetDropForwardingDisabled:count 0
attr interpolationmode none
attr source packetDropReasonIsForwardingDisabled(packetDropped)
attr title "packet drop: forwarding disabled, count"
scalar Red4Tcp.hA.ipv4.ip packetDropForwardingDisabled:sum(packetBytes) 0
attr interpolationmode none
attr source packetDropReasonIsForwardingDisabled(packetDropped)
attr title "packet drop: forwarding disabled, sum(packetBytes)"
scalar Red4Tcp.hA.ipv4.ip packetDropNoInterfaceFound:count 0
attr interpolationmode none
attr source packetDropReasonIsNoInterfaceFound(packetDropped)
attr title "packet drop: no interface found, count"
scalar Red4Tcp.hA.ipv4.ip packetDropNoInterfaceFound:sum(packetBytes) 0
attr interpolationmode none
attr source packetDropReasonIsNoInterfaceFound(packetDropped)
attr title "packet drop: no interface found, sum(packetBytes)"
scalar Red4Tcp.hA.ipv4.ip packetDropNoRouteFound:count 0
attr interpolationmode none
attr source packetDropReasonIsNoRouteFound(packetDropped)
attr title "packet drop: no route found, count"
scalar Red4Tcp.hA.ipv4.ip packetDropNoRouteFound:sum(packetBytes) 0
attr interpolationmode none
attr source packetDropReasonIsNoRouteFound(packetDropped)
attr title "packet drop: no route found, sum(packetBytes)"
scalar Red4Tcp.hA.ipv4.ip packetDropUndefined:count 0
attr interpolationmode none
attr source packetDropReasonIsUndefined(packetDropped)
attr title "packet drop: undefined, count"
scalar Red4Tcp.hA.ipv4.ip packetDropUndefined:sum(packetBytes) 0
attr interpolationmode none
attr source packetDropReasonIsUndefined(packetDropped)
attr title "packet drop: undefined, sum(packetBytes)"
par Red4Tcp.hA.ipv4.arp typename "\"inet.networklayer.arp.ipv4.Arp\""
par Red4Tcp.hA.ipv4.arp interfaceTableModule "\"Red4Tcp.hA.interfaceTable\""
par Red4Tcp.hA.ipv4.arp routingTableModule "\"Red4Tcp.hA.ipv4.routingTable\""
par Red4Tcp.hA.ipv4.arp retryTimeout 1s
attr unit s
par Red4Tcp.hA.ipv4.arp retryCount 3
par Red4Tcp.hA.ipv4.arp cacheTimeout 120s
attr unit s
par Red4Tcp.hA.ipv4.arp proxyArpInterfaces "\"\""
scalar Red4Tcp.hA.ipv4.arp arpResolutionFailed:count 0
attr title "ARP failed resolutions, count"
scalar Red4Tcp.hA.ipv4.arp arpResolutionCompleted:count 1
attr title "ARP completed resolutions, count"
scalar Red4Tcp.hA.ipv4.arp arpResolutionInitiated:count 1
attr title "ARP initiated resolutions, count"
scalar Red4Tcp.hA.ipv4.arp arpReplySent:count 0
attr source arpReplySent
attr title "ARP replies sent, count"
scalar Red4Tcp.hA.ipv4.arp arpReplySent:sum(packetBytes) 0
attr source arpReplySent
attr title "ARP replies sent, sum(packetBytes)"
scalar Red4Tcp.hA.ipv4.arp arpRequestSent:count 1
attr source arpRequestSent
attr title "ARP request sent, count"
scalar Red4Tcp.hA.ipv4.arp arpRequestSent:sum(packetBytes) 28
attr source arpRequestSent
attr title "ARP request sent, sum(packetBytes)"
par Red4Tcp.hA.ipv4.lp typename "\"inet.common.MessageDispatcher\""
par Red4Tcp.hA.ipv4.lp displayStringTextFormat "\"processed %p pk (%l)\""
par Red4Tcp.hA.ipv4 typename "\"inet.networklayer.ipv4.Ipv4NetworkLayer\""
par Red4Tcp.hA.ipv4 forwarding false
par Red4Tcp.hA.ipv4 multicastForwarding false
par Red4Tcp.hA.ipv4 interfaceTableModule "\"Red4Tcp.hA.interfaceTable\""
par Red4Tcp.hA.ipv4 displayStringTextFormat "\"%i\""
par Red4Tcp.hA.nl typename "\"inet.common.MessageDispatcher\""
par Red4Tcp.hA.nl displayStringTextFormat "\"processed %p pk (%l)\""
par Red4Tcp.hA.udp typename "\"inet.transportlayer.udp.Udp\""
par Red4Tcp.hA.udp interfaceTableModule "\"Red4Tcp.hA.interfaceTable\""
par Red4Tcp.hA.udp icmpModule "\"^.ipv4.icmp\""
par Red4Tcp.hA.udp icmpv6Module "\"^.ipv6.icmpv6\""
par Red4Tcp.hA.udp crcMode "\"declared\""
attr enum disabled,declared,computed
scalar Red4Tcp.hA.udp packetReceived:count 0
attr interpolationmode none
attr source packetReceived
attr title "packets received, count"
scalar Red4Tcp.hA.udp packetReceived:sum(packetBytes) 0
attr interpolationmode none
attr source packetReceived
attr title "packets received, sum(packetBytes)"
scalar Red4Tcp.hA.udp packetSent:count 0
attr interpolationmode none
attr source packetSent
attr title "packets sent, count"
scalar Red4Tcp.hA.udp packetSent:sum(packetBytes) 0
attr interpolationmode none
attr source packetSent
attr title "packets sent, sum(packetBytes)"
scalar Red4Tcp.hA.udp passedUpPk:count 0
attr interpolationmode none
attr source packetSentToUpper
attr title "packets passed up, count"
scalar Red4Tcp.hA.udp droppedPkWrongPort:count 0
attr interpolationmode none
attr source packetDropReasonIsNoPortFound(packetDropped)
attr title "packets dropped (wrong port), count"
scalar Red4Tcp.hA.udp droppedPkBadChecksum:count 0
attr interpolationmode none
attr source packetDropReasonIsIncorrectlyReceived(packetDropped)
attr title "packets dropped (checksum error), count"
par Red4Tcp.hA.tcp.conn-788 typename "\"inet.transportlayer.tcp.TcpConnection\""
par Red4Tcp.hA.tcp typename "\"inet.transportlayer.tcp.Tcp\""
par Red4Tcp.hA.tcp crcMode "\"declared\""
attr enum declared,computed
par Red4Tcp.hA.tcp advertisedWindow 7504
par Red4Tcp.hA.tcp delayedAcksEnabled false
par Red4Tcp.hA.tcp nagleEnabled true
par Red4Tcp.hA.tcp limitedTransmitEnabled false
par Red4Tcp.hA.tcp increasedIWEnabled false
par Red4Tcp.hA.tcp sackSupport false
par Red4Tcp.hA.tcp windowScalingSupport false
par Red4Tcp.hA.tcp windowScalingFactor -1
par Red4Tcp.hA.tcp timestampSupport false
par Red4Tcp.hA.tcp mss 536
par Red4Tcp.hA.tcp msl 120s
attr unit s
par Red4Tcp.hA.tcp tcpAlgorithmClass "\"TcpReno\""
attr enum TcpVegas,TcpWestwood,TcpNewReno,TcpReno,TcpTahoe,TcpNoCongestionControl
par Red4Tcp.hA.tcp useDataNotification false
par Red4Tcp.hA.tcp dupthresh 3
par Red4Tcp.hA.tcp initialSsthresh 4294967295
par Red4Tcp.hA.tcp stopOperationExtraTime 0s
attr unit s
par Red4Tcp.hA.tcp stopOperationTimeout 2s
attr unit s
par Red4Tcp.hA.tcp ecnWillingness false
par Red4Tcp.hA.tcp dctcpGamma 0.0625
par Red4Tcp.hA.rdma typename "\"inet.transportlayer.rdma.Rdma\""
par Red4Tcp.hA.rdma interfaceTableModule "\"Red4Tcp.hA.interfaceTable\""
par Red4Tcp.hA.rdma crcMode "\"declared\""
attr enum disabled,declared,computed
scalar Red4Tcp.hA.rdma packetReceived:count 0
attr interpolationmode none
attr source packetReceived
attr title "packets received, count"
scalar Red4Tcp.hA.rdma packetReceived:sum(packetBytes) 0
attr interpolationmode none
attr source packetReceived
attr title "packets received, sum(packetBytes)"
scalar Red4Tcp.hA.rdma packetSent:count 0
attr interpolationmode none
attr source packetSent
attr title "packets sent, count"
scalar Red4Tcp.hA.rdma packetSent:sum(packetBytes) 0
attr interpolationmode none
attr source packetSent
attr title "packets sent, sum(packetBytes)"
scalar Red4Tcp.hA.rdma passedUpPk:count 0
attr interpolationmode none
attr source packetSentToUpper
attr title "packets passed up, count"
scalar Red4Tcp.hA.rdma droppedPkWrongPort:count 0
attr interpolationmode none
attr source packetDropReasonIsNoPortFound(packetDropped)
attr title "packets dropped (wrong port), count"
scalar Red4Tcp.hA.rdma droppedPkBadChecksum:count 0
attr interpolationmode none
attr source packetDropReasonIsIncorrectlyReceived(packetDropped)
attr title "packets dropped (checksum error), count"
par Red4Tcp.hA.tn typename "\"inet.common.MessageDispatcher\""
par Red4Tcp.hA.tn displayStringTextFormat "\"processed %p pk (%l)\""
par Red4Tcp.hA.app[0] typename "\"inet.applications.tcpapp.TcpBasicClientApp\""
par Red4Tcp.hA.app[0] localAddress "\"\""
par Red4Tcp.hA.app[0] localPort 1000
par Red4Tcp.hA.app[0] connectAddress "\"hB\""
par Red4Tcp.hA.app[0] connectPort 1000
par Red4Tcp.hA.app[0] startTime 1s
attr unit s
par Red4Tcp.hA.app[0] stopTime -1s
attr unit s
par Red4Tcp.hA.app[0] numRequestsPerSession 1
par Red4Tcp.hA.app[0] requestLength 200B
attr unit B
par Red4Tcp.hA.app[0] replyLength 1048576B
attr unit B
par Red4Tcp.hA.app[0] thinkTime 0.01s
attr unit s
par Red4Tcp.hA.app[0] idleInterval 0s
attr unit s
par Red4Tcp.hA.app[0] reconnectInterval 30s
attr unit s
par Red4Tcp.hA.app[0] timeToLive -1
par Red4Tcp.hA.app[0] dscp -1
par Red4Tcp.hA.app[0] tos -1
par Red4Tcp.hA.app[0] stopOperationExtraTime -1s
attr unit s
par Red4Tcp.hA.app[0] stopOperationTimeout 2s
attr unit s
scalar Red4Tcp.hA.app[0] packetReceived:count 0
attr interpolationmode none
attr source packetReceived
attr title "packets received, count"
scalar Red4Tcp.hA.app[0] packetReceived:sum(packetBytes) 0
attr interpolationmode none
attr source packetReceived
attr title "packets received, sum(packetBytes)"
statistic Red4Tcp.hA.app[0] endToEndDelay:histogram
field count 0
field mean -nan
field stddev -nan
field min -nan
field max -nan
field sum 0
field sqrsum 0
attr interpolationmode none
attr source dataAge(packetReceived)
attr title "end-to-end delay, histogram"
attr unit s
bin	-inf	0
bin	0	0
bin	1	0
statistic Red4Tcp.hA.app[0] endToEndDelay:weightedHistogram
field count 0
field mean -nan
field stddev -nan
field min -nan
field max -nan
field weights 0
field weightedSum 0
field sqrSumWeights 0
field weightedSqrSum 0
attr interpolationmode none
attr source dataAge(packetReceived)
attr title "end-to-end delay, weightedHistogram"
attr unit s
bin	-inf	0
bin	0	0
bin	1	0
scalar Red4Tcp.hA.app[0] packetSent:count 0
attr interpolationmode none
attr source packetSent
attr title "packets sent, count"
scalar Red4Tcp.hA.app[0] packetSent:sum(packetBytes) 0
attr interpolationmode none
attr source packetSent
attr title "packets sent, sum(packetBytes)"
scalar Red4Tcp.hA.app[0] numActiveSessions:max 470
attr autoWarmupFilter false
attr interpolationmode sample-hold
attr source warmup(sum(connect))
attr title "number of active sessions, max"
scalar Red4Tcp.hA.app[0] numActiveSessions:timeavg 234.75239107333
attr autoWarmupFilter false
attr interpolationmode sample-hold
attr source warmup(sum(connect))
attr title "number of active sessions, timeavg"
scalar Red4Tcp.hA.app[0] numSessions:last 470
attr source sum(connect+1)/2
attr title "total number of sessions, last"
par Red4Tcp.hA.at typename "\"inet.common.MessageDispatcher\""
par Red4Tcp.hA.at displayStringTextFormat "\"processed %p pk (%l)\""
par Red4Tcp.hA typename "\"inet.node.inet.StandardHost\""
par Red4Tcp.hA hasStatus false
par Red4Tcp.hA osgModel "\"\""
par Red4Tcp.hA osgModelColor "\"\""
par Red4Tcp.hA canvasImage "\"\""
par Red4Tcp.hA canvasImageColor "\"\""
par Red4Tcp.hA recordPcap false
par Red4Tcp.hA numPcapRecorders 0
par Red4Tcp.hA numLoInterfaces 1
par Red4Tcp.hA numWlanInterfaces 0
par Red4Tcp.hA numEthInterfaces 0
par Red4Tcp.hA numPppInterfaces 0
par Red4Tcp.hA numTunInterfaces 0
par Red4Tcp.hA numVirtInterfaces 0
par Red4Tcp.hA hasIpv4 true
par Red4Tcp.hA hasIpv6 false
par Red4Tcp.hA hasGn false
par Red4Tcp.hA forwarding false
par Red4Tcp.hA multicastForwarding false
par Red4Tcp.hA hasUdp true
par Red4Tcp.hA hasTcp true
par Red4Tcp.hA hasSctp false
par Red4Tcp.hA hasRdma true
par Red4Tcp.hA numApps 1
par Red4Tcp.hB.ethg$i[0].channel typename "\"ned.IdealChannel\""
par Red4Tcp.hB.eth[0].phys$o.channel typename "\"ned.IdealChannel\""
par Red4Tcp.hB.interfaceTable typename "\"inet.networklayer.common.InterfaceTable\""
par Red4Tcp.hB.interfaceTable displayAddresses false
par Red4Tcp.hB.li typename "\"inet.common.MessageDispatcher\""
par Red4Tcp.hB.li displayStringTextFormat "\"processed %p pk (%l)\""
par Red4Tcp.hB.lo[0].upperLayerIn.channel typename "\"ned.IdealChannel\""
par Red4Tcp.hB.lo[0].lo.upperLayerOut.channel typename "\"ned.IdealChannel\""
par Red4Tcp.hB.lo[0].lo typename "\"inet.linklayer.loopback.Loopback\""
par Red4Tcp.hB.lo[0].lo interfaceTableModule "\"Red4Tcp.hB.interfaceTable\""
par Red4Tcp.hB.lo[0].lo mtu 4470B
attr unit B
scalar Red4Tcp.hB.lo[0].lo rcvdPkFromHl:count 0
attr interpolationmode none
attr source packetReceivedFromUpper
attr title "packets received from higher layer, count"
scalar Red4Tcp.hB.lo[0].lo rcvdPkFromHl:sum(packetBytes) 0
attr interpolationmode none
attr source packetReceivedFromUpper
attr title "packets received from higher layer, sum(packetBytes)"
scalar Red4Tcp.hB.lo[0].lo passedUpPk:count 0
attr interpolationmode none
attr source packetSentToUpper
attr title "packets passed to higher layer, count"
scalar Red4Tcp.hB.lo[0].lo passedUpPk:sum(packetBytes) 0
attr interpolationmode none
attr source packetSentToUpper
attr title "packets passed to higher layer, sum(packetBytes)"
par Red4Tcp.hB.lo[0] typename "\"inet.linklayer.loopback.LoopbackInterface\""
par Red4Tcp.hB.lo[0] displayStringTextFormat "\"%a (%i)\\n%m\""
par Red4Tcp.hB.lo[0] recordPcap false
par Red4Tcp.hB.lo[0] numPcapRecorders 0
par Red4Tcp.hB.lo[0] interfaceTableModule "\"Red4Tcp.hB.interfaceTable\""
par Red4Tcp.hB.eth[0].mac.phys$o.channel typename "\"ned.IdealChannel\""
par Red4Tcp.hB.eth[0].phys$i.channel typename "\"ned.IdealChannel\""
par Red4Tcp.hB.eth[0].encap.upperLayerOut.channel typename "\"ned.IdealChannel\""
par Red4Tcp.hB.eth[0].upperLayerIn.channel typename "\"ned.IdealChannel\""
par Red4Tcp.hB.eth[0].encap typename "\"inet.linklayer.ethernet.basic.EthernetEncapsulation\""
par Red4Tcp.hB.eth[0].encap interfaceTableModule "\"Red4Tcp.hB.interfaceTable\""
par Red4Tcp.hB.eth[0].encap useSNAP false
par Red4Tcp.hB.eth[0].encap fcsMode "\"declared\""
attr enum declared,computed
par Red4Tcp.hB.eth[0].encap registerProtocol false
par Red4Tcp.hB.eth[0].encap stopOperationExtraTime -1s
attr unit s
par Red4Tcp.hB.eth[0].encap stopOperationTimeout 2s
attr unit s
scalar Red4Tcp.hB.eth[0].encap pauseSent:count 0
attr title "pause sent, count"
scalar Red4Tcp.hB.eth[0].encap pauseSent:sum 0
attr title "pause sent, sum"
scalar Red4Tcp.hB.eth[0].encap decapPk:count 784
attr interpolationmode none
attr source decapPk
attr title "packets decapsulated, count"
scalar Red4Tcp.hB.eth[0].encap decapPk:sum(packetBytes) 36064
attr interpolationmode none
attr source decapPk
attr title "packets decapsulated, sum(packetBytes)"
scalar Red4Tcp.hB.eth[0].encap encapPk:count 784
attr interpolationmode none
attr source encapPk
attr title "packets encapsulated, count"
scalar Red4Tcp.hB.eth[0].encap encapPk:sum(packetBytes) 31336
attr interpolationmode none
attr source encapPk
attr title "packets encapsulated, sum(packetBytes)"
par Red4Tcp.hB.eth[0].mac.queue typename "\"inet.linklayer.ethernet.common.EthernetQueue\""
par Red4Tcp.hB.eth[0].mac.queue displayStringTextFormat "\"contains %p pk (%l) pushed %u\\npulled %o removed %r dropped %d\""
par Red4Tcp.hB.eth[0].mac.queue packetCapacity 10000
par Red4Tcp.hB.eth[0].mac.queue dataCapacity -1b
attr unit b
par Red4Tcp.hB.eth[0].mac.queue dropperClass "\"inet::queueing::PacketAtCollectionEndDropper\""
par Red4Tcp.hB.eth[0].mac.queue comparatorClass "\"inet::EthernetFrameTypeComparator\""
par Red4Tcp.hB.eth[0].mac.queue bufferModule "\"\""
scalar Red4Tcp.hB.eth[0].mac.queue packetPulled:count 784
attr interpolationmode none
attr title "packet pulled, count"
scalar Red4Tcp.hB.eth[0].mac.queue packetPulled:sum(packetBytes) 45448
attr interpolationmode none
attr title "packet pulled, sum(packetBytes)"
statistic Red4Tcp.hB.eth[0].mac.queue queueingTime:histogram
field count 784
field mean 0
field stddev 0
field min 0
field max 0
field sum 0
field sqrsum 0
attr interpolationmode none
attr source queueingTime(packetPulled)
attr title "queueing times, histogram"
attr unit s
bin	-inf	0
bin	-0.5	0
bin	-0.48	0
bin	-0.46	0
bin	-0.44	0
bin	-0.42	0
bin	-0.4	0
bin	-0.38	0
bin	-0.36	0
bin	-0.34	0
bin	-0.32	0
bin	-0.3	0
bin	-0.28	0
bin	-0.26	0
bin	-0.24	0
bin	-0.22	0
bin	-0.2	0
bin	-0.18	0
bin	-0.16	0
bin	-0.14	0
bin	-0.12	0
bin	-0.1	0
bin	-0.08	0
bin	-0.06	0
bin	-0.04	0
bin	-0.02	0
bin	0	784
bin	0.02	0
bin	0.04	0
bin	0.06	0
bin	0.08	0
bin	0.1	0
bin	0.12	0
bin	0.14	0
bin	0.16	0
bin	0.18	0
bin	0.2	0
bin	0.22	0
bin	0.24	0
bin	0.26	0
bin	0.28	0
bin	0.3	0
bin	0.32	0
bin	0.34	0
bin	0.36	0
bin	0.38	0
bin	0.4	0
bin	0.42	0
bin	0.44	0
bin	0.46	0
bin	0.48	0
bin	0.5	0
scalar Red4Tcp.hB.eth[0].mac.queue queueLength:max 1
attr autoWarmupFilter false
attr interpolationmode sample-hold
attr source "warmup(count(packetPushed) - count(packetPulled) - count(packetRemoved) - count(packetDropped))"
attr title "queue length, max"
attr type int
scalar Red4Tcp.hB.eth[0].mac.queue queueLength:timeavg 0
attr autoWarmupFilter false
attr interpolationmode sample-hold
attr source "warmup(count(packetPushed) - count(packetPulled) - count(packetRemoved) - count(packetDropped))"
attr title "queue length, timeavg"
attr type int
scalar Red4Tcp.hB.eth[0].mac.queue packetPushed:count 784
attr interpolationmode none
attr title "packet pushed, count"
scalar Red4Tcp.hB.eth[0].mac.queue packetPushed:sum(packetBytes) 45448
attr interpolationmode none
attr title "packet pushed, sum(packetBytes)"
scalar Red4Tcp.hB.eth[0].mac.queue packetDropQueueOverflow:count 0
attr interpolationmode none
attr source packetDropReasonIsQueueOverflow(packetDropped)
attr title "packet drops: queue overflow, count"
scalar Red4Tcp.hB.eth[0].mac.queue packetDropQueueOverflow:sum(packetBytes) 0
attr interpolationmode none
attr source packetDropReasonIsQueueOverflow(packetDropped)
attr title "packet drops: queue overflow, sum(packetBytes)"
scalar Red4Tcp.hB.eth[0].mac.queue packetRemoved:count 0
attr interpolationmode none
attr title "packets removed, count"
scalar Red4Tcp.hB.eth[0].mac.queue packetRemoved:sum(packetBytes) 0
attr interpolationmode none
attr title "packets removed, sum(packetBytes)"
par Red4Tcp.hB.eth[0].mac typename "\"inet.linklayer.ethernet.basic.EthernetMac\""
par Red4Tcp.hB.eth[0].mac interfaceTableModule "\"Red4Tcp.hB.interfaceTable\""
par Red4Tcp.hB.eth[0].mac displayStringTextFormat "\"rate: %b\\nsent: %s, rcvd: %r\\nqueue: %q, drop: %d\""
par Red4Tcp.hB.eth[0].mac sendRawBytes false
par Red4Tcp.hB.eth[0].mac promiscuous false
par Red4Tcp.hB.eth[0].mac duplexMode true
par Red4Tcp.hB.eth[0].mac mtu 1500B
attr unit B
par Red4Tcp.hB.eth[0].mac stopOperationExtraTime -1s
attr unit s
par Red4Tcp.hB.eth[0].mac stopOperationTimeout 2s
attr unit s
scalar Red4Tcp.hB.eth[0].mac "simulated time" 1.0019091008
scalar Red4Tcp.hB.eth[0].mac full-duplex 1
scalar Red4Tcp.hB.eth[0].mac "frames/sec sent" 782.50611694613
scalar Red4Tcp.hB.eth[0].mac "frames/sec rcvd" 783.50421148305
scalar Red4Tcp.hB.eth[0].mac "bits/sec sent" 400643.13187642
scalar Red4Tcp.hB.eth[0].mac "bits/sec rcvd" 401154.15627932
scalar Red4Tcp.hB.eth[0].mac "rx channel idle (%)" 99.998871753935
scalar Red4Tcp.hB.eth[0].mac "rx channel utilization (%)" 0.0011282460645356
scalar Red4Tcp.hB.eth[0].mac rxPausePkUnits:count 0
attr interpolationmode none
attr title "pause units received, count"
scalar Red4Tcp.hB.eth[0].mac rxPausePkUnits:sum 0
attr interpolationmode none
attr title "pause units received, sum"
scalar Red4Tcp.hB.eth[0].mac txPausePkUnits:count 0
attr interpolationmode none
attr title "pause units sent, count"
scalar Red4Tcp.hB.eth[0].mac txPausePkUnits:sum 0
attr interpolationmode none
attr title "pause units sent, sum"
scalar Red4Tcp.hB.eth[0].mac rxPkOk:count 785
attr interpolationmode none
attr source rxPkOk
attr title "packets received OK, count"
scalar Red4Tcp.hB.eth[0].mac rxPkOk:sum(packetBytes) 50240
attr interpolationmode none
attr source rxPkOk
attr title "packets received OK, sum(packetBytes)"
scalar Red4Tcp.hB.eth[0].mac txPk:count 784
attr interpolationmode none
attr source packetSentToLower
attr title "packets transmitted, count"
scalar Red4Tcp.hB.eth[0].mac txPk:sum(packetBytes) 50176
attr interpolationmode none
attr source packetSentToLower
attr title "packets transmitted, sum(packetBytes)"
scalar Red4Tcp.hB.eth[0].mac packetReceivedFromUpper:count 784
attr interpolationmode none
attr source packetReceivedFromUpper
attr title "packet bytes from higher layer, count"
scalar Red4Tcp.hB.eth[0].mac packetReceivedFromUpper:sum(packetBytes) 45448
attr interpolationmode none
attr source packetReceivedFromUpper
attr title "packet bytes from higher layer, sum(packetBytes)"
scalar Red4Tcp.hB.eth[0].mac passedUpPk:count 785
attr interpolationmode none
attr source packetSentToUpper
attr title "packets passed to higher layer, count"
scalar Red4Tcp.hB.eth[0].mac passedUpPk:sum(packetBytes) 50240
attr interpolationmode none
attr source packetSentToUpper
attr title "packets passed to higher layer, sum(packetBytes)"
scalar Red4Tcp.hB.eth[0].mac packetDropIncorrectlyReceived:count 0
attr interpolationmode none
attr source packetDropReasonIsIncorrectlyReceived(packetDropped)
attr title "packet drop: incorrectly received, count"
scalar Red4Tcp.hB.eth[0].mac packetDropIncorrectlyReceived:sum(packetBytes) 0
attr interpolationmode none
attr source packetDropReasonIsIncorrectlyReceived(packetDropped)
attr title "packet drop: incorrectly received, sum(packetBytes)"
scalar Red4Tcp.hB.eth[0].mac packetDropInterfaceDown:count 0
attr interpolationmode none
attr source packetDropReasonIsInterfaceDown(packetDropped)
attr title "packet drop: interface down, count"
scalar Red4Tcp.hB.eth[0].mac packetDropInterfaceDown:sum(packetBytes) 0
attr interpolationmode none
attr source packetDropReasonIsInterfaceDown(packetDropped)
attr title "packet drop: interface down, sum(packetBytes)"
scalar Red4Tcp.hB.eth[0].mac packetDropNotAddressedToUs:count 0
attr interpolationmode none
attr source packetDropReasonIsNotAddressedToUs(packetDropped)
attr title "packet drop: not addressed to us, count"
scalar Red4Tcp.hB.eth[0].mac packetDropNotAddressedToUs:sum(packetBytes) 0
attr interpolationmode none
attr source packetDropReasonIsNotAddressedToUs(packetDropped)
attr title "packet drop: not addressed to us, sum(packetBytes)"
par Red4Tcp.hB.eth[0] typename "\"inet.linklayer.ethernet.EthernetInterface\""
par Red4Tcp.hB.eth[0] displayStringTextFormat "\"%a (%i)\\n%m\""
par Red4Tcp.hB.eth[0] recordPcap false
par Red4Tcp.hB.eth[0] numPcapRecorders 0
par Red4Tcp.hB.eth[0] interfaceTableModule "\"Red4Tcp.hB.interfaceTable\""
par Red4Tcp.hB.eth[0] address "\"0A-AA-00-00-00-02\""
par Red4Tcp.hB.eth[0] duplexMode true
par Red4Tcp.hB.eth[0] csmacdSupport false
par Red4Tcp.hB.eth[0] bitrate 0bps
attr unit bps
par Red4Tcp.hB.eth[0] fcsMode "\"declared\""
attr enum declared,computed
par Red4Tcp.hB.ipv4.transportIn.channel typename "\"ned.IdealChannel\""
par Red4Tcp.hB.ipv4.up.out[0].channel typename "\"ned.IdealChannel\""
par Red4Tcp.hB.ipv4.lp.out[2].channel typename "\"ned.IdealChannel\""
par Red4Tcp.hB.ipv4.ifIn.channel typename "\"ned.IdealChannel\""
par Red4Tcp.hB.ipv4.configurator typename "\"inet.networklayer.configurator.ipv4.Ipv4NodeConfigurator\""
par Red4Tcp.hB.ipv4.configurator interfaceTableModule "\"Red4Tcp.hB.interfaceTable\""
par Red4Tcp.hB.ipv4.configurator routingTableModule "\"Red4Tcp.hB.ipv4.routingTable\""
par Red4Tcp.hB.ipv4.configurator networkConfiguratorModule "\"configurator\""
par Red4Tcp.hB.ipv4.configurator configureRoutingTable true
par Red4Tcp.hB.ipv4.routingTable typename "\"inet.networklayer.ipv4.Ipv4RoutingTable\""
par Red4Tcp.hB.ipv4.routingTable interfaceTableModule "\"Red4Tcp.hB.interfaceTable\""
par Red4Tcp.hB.ipv4.routingTable routerId "\"auto\""
par Red4Tcp.hB.ipv4.routingTable netmaskRoutes "\"*\""
par Red4Tcp.hB.ipv4.routingTable forwarding false
par Red4Tcp.hB.ipv4.routingTable multicastForwarding false
par Red4Tcp.hB.ipv4.routingTable useAdminDist false
par Red4Tcp.hB.ipv4.routingTable routingFile "\"\""
par Red4Tcp.hB.ipv4.natTable typename "\"inet.networklayer.ipv4.Ipv4NatTable\""
par Red4Tcp.hB.ipv4.natTable networkProtocolModule "\"^.ip\""
par Red4Tcp.hB.ipv4.natTable config "<config/> at content:1"
par Red4Tcp.hB.ipv4.up typename "\"inet.common.MessageDispatcher\""
par Red4Tcp.hB.ipv4.up displayStringTextFormat "\"processed %p pk (%l)\""
par Red4Tcp.hB.ipv4.igmp typename "\"inet.networklayer.ipv4.Igmpv2\""
par Red4Tcp.hB.ipv4.igmp interfaceTableModule "\"Red4Tcp.hB.interfaceTable\""
par Red4Tcp.hB.ipv4.igmp routingTableModule "\"Red4Tcp.hB.ipv4.routingTable\""
par Red4Tcp.hB.ipv4.igmp crcMode "\"declared\""
attr enum declared,computed
par Red4Tcp.hB.ipv4.igmp enabled true
par Red4Tcp.hB.ipv4.igmp robustnessVariable 2
par Red4Tcp.hB.ipv4.igmp queryInterval 125s
attr unit s
par Red4Tcp.hB.ipv4.igmp queryResponseInterval 10s
attr unit s
par Red4Tcp.hB.ipv4.igmp groupMembershipInterval 260s
attr unit s
par Red4Tcp.hB.ipv4.igmp otherQuerierPresentInterval 255s
attr unit s
par Red4Tcp.hB.ipv4.igmp startupQueryInterval 31.25s
attr unit s
par Red4Tcp.hB.ipv4.igmp startupQueryCount 2
par Red4Tcp.hB.ipv4.igmp lastMemberQueryInterval 1s
attr unit s
par Red4Tcp.hB.ipv4.igmp lastMemberQueryCount 2
par Red4Tcp.hB.ipv4.igmp unsolicitedReportInterval 10s
attr unit s
par Red4Tcp.hB.ipv4.icmp typename "\"inet.networklayer.ipv4.Icmp\""
par Red4Tcp.hB.ipv4.icmp interfaceTableModule "\"Red4Tcp.hB.interfaceTable\""
par Red4Tcp.hB.ipv4.icmp routingTableModule "\"Red4Tcp.hB.ipv4.routingTable\""
par Red4Tcp.hB.ipv4.icmp crcMode "\"declared\""
attr enum declared,computed
par Red4Tcp.hB.ipv4.icmp quoteLength 8B
attr unit B
par Red4Tcp.hB.ipv4.mp typename "\"inet.common.MessageDispatcher\""
par Red4Tcp.hB.ipv4.mp displayStringTextFormat "\"processed %p pk (%l)\""
par Red4Tcp.hB.ipv4.ip typename "\"inet.networklayer.ipv4.Ipv4\""
par Red4Tcp.hB.ipv4.ip interfaceTableModule "\"Red4Tcp.hB.interfaceTable\""
par Red4Tcp.hB.ipv4.ip routingTableModule "\"Red4Tcp.hB.ipv4.routingTable\""
par Red4Tcp.hB.ipv4.ip arpModule "\"Red4Tcp.hB.ipv4.arp\""
par Red4Tcp.hB.ipv4.ip icmpModule "\"Red4Tcp.hB.ipv4.icmp\""
par Red4Tcp.hB.ipv4.ip crcMode "\"declared\""
attr enum declared,computed
par Red4Tcp.hB.ipv4.ip timeToLive 32
par Red4Tcp.hB.ipv4.ip multicastTimeToLive 32
par Red4Tcp.hB.ipv4.ip fragmentTimeout 60s
attr unit s
par Red4Tcp.hB.ipv4.ip limitedBroadcast false
par Red4Tcp.hB.ipv4.ip directBroadcastInterfaces "\"\""
scalar Red4Tcp.hB.ipv4.ip packetDropAddressResolutionFailed:count 0
attr interpolationmode none
attr source packetDropReasonIsAddressResolutionFailed(packetDropped)
attr title "packet drop: address resolution failed, count"
scalar Red4Tcp.hB.ipv4.ip packetDropAddressResolutionFailed:sum(packetBytes) 0
attr interpolationmode none
attr source packetDropReasonIsAddressResolutionFailed(packetDropped)
attr title "packet drop: address resolution failed, sum(packetBytes)"
scalar Red4Tcp.hB.ipv4.ip packetDropHopLimitReached:count 0
attr interpolationmode none
attr source packetDropReasonIsHopLimitReached(packetDropped)
attr title "packet drop: hop limit reached, count"
scalar Red4Tcp.hB.ipv4.ip packetDropHopLimitReached:sum(packetBytes) 0
attr interpolationmode none
attr source packetDropReasonIsHopLimitReached(packetDropped)
attr title "packet drop: hop limit reached, sum(packetBytes)"
scalar Red4Tcp.hB.ipv4.ip packetDropForwardingDisabled:count 0
attr interpolationmode none
attr source packetDropReasonIsForwardingDisabled(packetDropped)
attr title "packet drop: forwarding disabled, count"
scalar Red4Tcp.hB.ipv4.ip packetDropForwardingDisabled:sum(packetBytes) 0
attr interpolationmode none
attr source packetDropReasonIsForwardingDisabled(packetDropped)
attr title "packet drop: forwarding disabled, sum(packetBytes)"
scalar Red4Tcp.hB.ipv4.ip packetDropNoInterfaceFound:count 0
attr interpolationmode none
attr source packetDropReasonIsNoInterfaceFound(packetDropped)
attr title "packet drop: no interface found, count"
scalar Red4Tcp.hB.ipv4.ip packetDropNoInterfaceFound:sum(packetBytes) 0
attr interpolationmode none
attr source packetDropReasonIsNoInterfaceFound(packetDropped)
attr title "packet drop: no interface found, sum(packetBytes)"
scalar Red4Tcp.hB.ipv4.ip packetDropNoRouteFound:count 0
attr interpolationmode none
attr source packetDropReasonIsNoRouteFound(packetDropped)
attr title "packet drop: no route found, count"
scalar Red4Tcp.hB.ipv4.ip packetDropNoRouteFound:sum(packetBytes) 0
attr interpolationmode none
attr source packetDropReasonIsNoRouteFound(packetDropped)
attr title "packet drop: no route found, sum(packetBytes)"
scalar Red4Tcp.hB.ipv4.ip packetDropUndefined:count 0
attr interpolationmode none
attr source packetDropReasonIsUndefined(packetDropped)
attr title "packet drop: undefined, count"
scalar Red4Tcp.hB.ipv4.ip packetDropUndefined:sum(packetBytes) 0
attr interpolationmode none
attr source packetDropReasonIsUndefined(packetDropped)
attr title "packet drop: undefined, sum(packetBytes)"
par Red4Tcp.hB.ipv4.arp typename "\"inet.networklayer.arp.ipv4.Arp\""
par Red4Tcp.hB.ipv4.arp interfaceTableModule "\"Red4Tcp.hB.interfaceTable\""
par Red4Tcp.hB.ipv4.arp routingTableModule "\"Red4Tcp.hB.ipv4.routingTable\""
par Red4Tcp.hB.ipv4.arp retryTimeout 1s
attr unit s
par Red4Tcp.hB.ipv4.arp retryCount 3
par Red4Tcp.hB.ipv4.arp cacheTimeout 120s
attr unit s
par Red4Tcp.hB.ipv4.arp proxyArpInterfaces "\"\""
scalar Red4Tcp.hB.ipv4.arp arpResolutionFailed:count 0
attr title "ARP failed resolutions, count"
scalar Red4Tcp.hB.ipv4.arp arpResolutionCompleted:count 2
attr title "ARP completed resolutions, count"
scalar Red4Tcp.hB.ipv4.arp arpResolutionInitiated:count 0
attr title "ARP initiated resolutions, count"
scalar Red4Tcp.hB.ipv4.arp arpReplySent:count 2
attr source arpReplySent
attr title "ARP replies sent, count"
scalar Red4Tcp.hB.ipv4.arp arpReplySent:sum(packetBytes) 56
attr source arpReplySent
attr title "ARP replies sent, sum(packetBytes)"
scalar Red4Tcp.hB.ipv4.arp arpRequestSent:count 0
attr source arpRequestSent
attr title "ARP request sent, count"
scalar Red4Tcp.hB.ipv4.arp arpRequestSent:sum(packetBytes) 0
attr source arpRequestSent
attr title "ARP request sent, sum(packetBytes)"
par Red4Tcp.hB.ipv4.lp typename "\"inet.common.MessageDispatcher\""
par Red4Tcp.hB.ipv4.lp displayStringTextFormat "\"processed %p pk (%l)\""
par Red4Tcp.hB.ipv4 typename "\"inet.networklayer.ipv4.Ipv4NetworkLayer\""
par Red4Tcp.hB.ipv4 forwarding false
par Red4Tcp.hB.ipv4 multicastForwarding false
par Red4Tcp.hB.ipv4 interfaceTableModule "\"Red4Tcp.hB.interfaceTable\""
par Red4Tcp.hB.ipv4 displayStringTextFormat "\"%i\""
par Red4Tcp.hB.nl typename "\"inet.common.MessageDispatcher\""
par Red4Tcp.hB.nl displayStringTextFormat "\"processed %p pk (%l)\""
par Red4Tcp.hB.udp typename "\"inet.transportlayer.udp.Udp\""
par Red4Tcp.hB.udp interfaceTableModule "\"Red4Tcp.hB.interfaceTable\""
par Red4Tcp.hB.udp icmpModule "\"^.ipv4.icmp\""
par Red4Tcp.hB.udp icmpv6Module "\"^.ipv6.icmpv6\""
par Red4Tcp.hB.udp crcMode "\"declared\""
attr enum disabled,declared,computed
scalar Red4Tcp.hB.udp packetReceived:count 0
attr interpolationmode none
attr source packetReceived
attr title "packets received, count"
scalar Red4Tcp.hB.udp packetReceived:sum(packetBytes) 0
attr interpolationmode none
attr source packetReceived
attr title "packets received, sum(packetBytes)"
scalar Red4Tcp.hB.udp packetSent:count 0
attr interpolationmode none
attr source packetSent
attr title "packets sent, count"
scalar Red4Tcp.hB.udp packetSent:sum(packetBytes) 0
attr interpolationmode none
attr source packetSent
attr title "packets sent, sum(packetBytes)"
scalar Red4Tcp.hB.udp passedUpPk:count 0
attr interpolationmode none
attr source packetSentToUpper
attr title "packets passed up, count"
scalar Red4Tcp.hB.udp droppedPkWrongPort:count 0
attr interpolationmode none
attr source packetDropReasonIsNoPortFound(packetDropped)
attr title "packets dropped (wrong port), count"
scalar Red4Tcp.hB.udp droppedPkBadChecksum:count 0
attr interpolationmode none
attr source packetDropReasonIsIncorrectlyReceived(packetDropped)
attr title "packets dropped (checksum error), count"
par Red4Tcp.hB.tcp typename "\"inet.transportlayer.tcp.Tcp\""
par Red4Tcp.hB.tcp crcMode "\"declared\""
attr enum declared,computed
par Red4Tcp.hB.tcp advertisedWindow 7504
par Red4Tcp.hB.tcp delayedAcksEnabled false
par Red4Tcp.hB.tcp nagleEnabled true
par Red4Tcp.hB.tcp limitedTransmitEnabled false
par Red4Tcp.hB.tcp increasedIWEnabled false
par Red4Tcp.hB.tcp sackSupport false
par Red4Tcp.hB.tcp windowScalingSupport false
par Red4Tcp.hB.tcp windowScalingFactor -1
par Red4Tcp.hB.tcp timestampSupport false
par Red4Tcp.hB.tcp mss 536
par Red4Tcp.hB.tcp msl 120s
attr unit s
par Red4Tcp.hB.tcp tcpAlgorithmClass "\"TcpReno\""
attr enum TcpVegas,TcpWestwood,TcpNewReno,TcpReno,TcpTahoe,TcpNoCongestionControl
par Red4Tcp.hB.tcp useDataNotification false
par Red4Tcp.hB.tcp dupthresh 3
par Red4Tcp.hB.tcp initialSsthresh 4294967295
par Red4Tcp.hB.tcp stopOperationExtraTime 0s
attr unit s
par Red4Tcp.hB.tcp stopOperationTimeout 2s
attr unit s
par Red4Tcp.hB.tcp ecnWillingness false
par Red4Tcp.hB.tcp dctcpGamma 0.0625
par Red4Tcp.hB.rdma typename "\"inet.transportlayer.rdma.Rdma\""
par Red4Tcp.hB.rdma interfaceTableModule "\"Red4Tcp.hB.interfaceTable\""
par Red4Tcp.hB.rdma crcMode "\"declared\""
attr enum disabled,declared,computed
scalar Red4Tcp.hB.rdma packetReceived:count 0
attr interpolationmode none
attr source packetReceived
attr title "packets received, count"
scalar Red4Tcp.hB.rdma packetReceived:sum(packetBytes) 0
attr interpolationmode none
attr source packetReceived
attr title "packets received, sum(packetBytes)"
scalar Red4Tcp.hB.rdma packetSent:count 0
attr interpolationmode none
attr source packetSent
attr title "packets sent, count"
scalar Red4Tcp.hB.rdma packetSent:sum(packetBytes) 0
attr interpolationmode none
attr source packetSent
attr title "packets sent, sum(packetBytes)"
scalar Red4Tcp.hB.rdma passedUpPk:count 0
attr interpolationmode none
attr source packetSentToUpper
attr title "packets passed up, count"
scalar Red4Tcp.hB.rdma droppedPkWrongPort:count 0
attr interpolationmode none
attr source packetDropReasonIsNoPortFound(packetDropped)
attr title "packets dropped (wrong port), count"
scalar Red4Tcp.hB.rdma droppedPkBadChecksum:count 0
attr interpolationmode none
attr source packetDropReasonIsIncorrectlyReceived(packetDropped)
attr title "packets dropped (checksum error), count"
par Red4Tcp.hB.tn typename "\"inet.common.MessageDispatcher\""
par Red4Tcp.hB.tn displayStringTextFormat "\"processed %p pk (%l)\""
par Red4Tcp.hB.app[0] typename "\"inet.applications.tcpapp.TcpBasicClientApp\""
par Red4Tcp.hB.app[0] localAddress "\"\""
par Red4Tcp.hB.app[0] localPort 1000
par Red4Tcp.hB.app[0] connectAddress "\"\""
par Red4Tcp.hB.app[0] connectPort 1000
par Red4Tcp.hB.app[0] startTime 1s
attr unit s
par Red4Tcp.hB.app[0] stopTime -1s
attr unit s
par Red4Tcp.hB.app[0] numRequestsPerSession 1
par Red4Tcp.hB.app[0] requestLength 200B
attr unit B
par Red4Tcp.hB.app[0] replyLength 1048576B
attr unit B
par Red4Tcp.hB.app[0] thinkTime 0.01s
attr unit s
par Red4Tcp.hB.app[0] idleInterval 0s
attr unit s
par Red4Tcp.hB.app[0] reconnectInterval 30s
attr unit s
par Red4Tcp.hB.app[0] timeToLive -1
par Red4Tcp.hB.app[0] dscp -1
par Red4Tcp.hB.app[0] tos -1
par Red4Tcp.hB.app[0] stopOperationExtraTime -1s
attr unit s
par Red4Tcp.hB.app[0] stopOperationTimeout 2s
attr unit s
scalar Red4Tcp.hB.app[0] packetReceived:count 0
attr interpolationmode none
attr source packetReceived
attr title "packets received, count"
scalar Red4Tcp.hB.app[0] packetReceived:sum(packetBytes) 0
attr interpolationmode none
attr source packetReceived
attr title "packets received, sum(packetBytes)"
statistic Red4Tcp.hB.app[0] endToEndDelay:histogram
field count 0
field mean -nan
field stddev -nan
field min -nan
field max -nan
field sum 0
field sqrsum 0
attr interpolationmode none
attr source dataAge(packetReceived)
attr title "end-to-end delay, histogram"
attr unit s
bin	-inf	0
bin	0	0
bin	1	0
statistic Red4Tcp.hB.app[0] endToEndDelay:weightedHistogram
field count 0
field mean -nan
field stddev -nan
field min -nan
field max -nan
field weights 0
field weightedSum 0
field sqrSumWeights 0
field weightedSqrSum 0
attr interpolationmode none
attr source dataAge(packetReceived)
attr title "end-to-end delay, weightedHistogram"
attr unit s
bin	-inf	0
bin	0	0
bin	1	0
scalar Red4Tcp.hB.app[0] packetSent:count 0
attr interpolationmode none
attr source packetSent
attr title "packets sent, count"
scalar Red4Tcp.hB.app[0] packetSent:sum(packetBytes) 0
attr interpolationmode none
attr source packetSent
attr title "packets sent, sum(packetBytes)"
scalar Red4Tcp.hB.app[0] numActiveSessions:max -nan
attr autoWarmupFilter false
attr interpolationmode sample-hold
attr source warmup(sum(connect))
attr title "number of active sessions, max"
scalar Red4Tcp.hB.app[0] numActiveSessions:timeavg -nan
attr autoWarmupFilter false
attr interpolationmode sample-hold
attr source warmup(sum(connect))
attr title "number of active sessions, timeavg"
scalar Red4Tcp.hB.app[0] numSessions:last nan
attr source sum(connect+1)/2
attr title "total number of sessions, last"
par Red4Tcp.hB.at typename "\"inet.common.MessageDispatcher\""
par Red4Tcp.hB.at displayStringTextFormat "\"processed %p pk (%l)\""
par Red4Tcp.hB typename "\"inet.node.inet.StandardHost\""
par Red4Tcp.hB hasStatus false
par Red4Tcp.hB osgModel "\"\""
par Red4Tcp.hB osgModelColor "\"\""
par Red4Tcp.hB canvasImage "\"\""
par Red4Tcp.hB canvasImageColor "\"\""
par Red4Tcp.hB recordPcap false
par Red4Tcp.hB numPcapRecorders 0
par Red4Tcp.hB numLoInterfaces 1
par Red4Tcp.hB numWlanInterfaces 0
par Red4Tcp.hB numEthInterfaces 0
par Red4Tcp.hB numPppInterfaces 0
par Red4Tcp.hB numTunInterfaces 0
par Red4Tcp.hB numVirtInterfaces 0
par Red4Tcp.hB hasIpv4 true
par Red4Tcp.hB hasIpv6 false
par Red4Tcp.hB hasGn false
par Red4Tcp.hB forwarding false
par Red4Tcp.hB multicastForwarding false
par Red4Tcp.hB hasUdp true
par Red4Tcp.hB hasTcp true
par Red4Tcp.hB hasSctp false
par Red4Tcp.hB hasRdma true
par Red4Tcp.hB numApps 1
par Red4Tcp.hC.ethg$i[0].channel typename "\"ned.IdealChannel\""
par Red4Tcp.hC.eth[0].phys$o.channel typename "\"ned.IdealChannel\""
par Red4Tcp.hC.interfaceTable typename "\"inet.networklayer.common.InterfaceTable\""
par Red4Tcp.hC.interfaceTable displayAddresses false
par Red4Tcp.hC.li typename "\"inet.common.MessageDispatcher\""
par Red4Tcp.hC.li displayStringTextFormat "\"processed %p pk (%l)\""
par Red4Tcp.hC.lo[0].upperLayerIn.channel typename "\"ned.IdealChannel\""
par Red4Tcp.hC.lo[0].lo.upperLayerOut.channel typename "\"ned.IdealChannel\""
par Red4Tcp.hC.lo[0].lo typename "\"inet.linklayer.loopback.Loopback\""
par Red4Tcp.hC.lo[0].lo interfaceTableModule "\"Red4Tcp.hC.interfaceTable\""
par Red4Tcp.hC.lo[0].lo mtu 4470B
attr unit B
scalar Red4Tcp.hC.lo[0].lo rcvdPkFromHl:count 0
attr interpolationmode none
attr source packetReceivedFromUpper
attr title "packets received from higher layer, count"
scalar Red4Tcp.hC.lo[0].lo rcvdPkFromHl:sum(packetBytes) 0
attr interpolationmode none
attr source packetReceivedFromUpper
attr title "packets received from higher layer, sum(packetBytes)"
scalar Red4Tcp.hC.lo[0].lo passedUpPk:count 0
attr interpolationmode none
attr source packetSentToUpper
attr title "packets passed to higher layer, count"
scalar Red4Tcp.hC.lo[0].lo passedUpPk:sum(packetBytes) 0
attr interpolationmode none
attr source packetSentToUpper
attr title "packets passed to higher layer, sum(packetBytes)"
par Red4Tcp.hC.lo[0] typename "\"inet.linklayer.loopback.LoopbackInterface\""
par Red4Tcp.hC.lo[0] displayStringTextFormat "\"%a (%i)\\n%m\""
par Red4Tcp.hC.lo[0] recordPcap false
par Red4Tcp.hC.lo[0] numPcapRecorders 0
par Red4Tcp.hC.lo[0] interfaceTableModule "\"Red4Tcp.hC.interfaceTable\""
par Red4Tcp.hC.eth[0].mac.phys$o.channel typename "\"ned.IdealChannel\""
par Red4Tcp.hC.eth[0].phys$i.channel typename "\"ned.IdealChannel\""
par Red4Tcp.hC.eth[0].encap.upperLayerOut.channel typename "\"ned.IdealChannel\""
par Red4Tcp.hC.eth[0].upperLayerIn.channel typename "\"ned.IdealChannel\""
par Red4Tcp.hC.eth[0].encap typename "\"inet.linklayer.ethernet.basic.EthernetEncapsulation\""
par Red4Tcp.hC.eth[0].encap interfaceTableModule "\"Red4Tcp.hC.interfaceTable\""
par Red4Tcp.hC.eth[0].encap useSNAP false
par Red4Tcp.hC.eth[0].encap fcsMode "\"declared\""
attr enum declared,computed
par Red4Tcp.hC.eth[0].encap registerProtocol false
par Red4Tcp.hC.eth[0].encap stopOperationExtraTime -1s
attr unit s
par Red4Tcp.hC.eth[0].encap stopOperationTimeout 2s
attr unit s
scalar Red4Tcp.hC.eth[0].encap pauseSent:count 0
attr title "pause sent, count"
scalar Red4Tcp.hC.eth[0].encap pauseSent:sum 0
attr title "pause sent, sum"
scalar Red4Tcp.hC.eth[0].encap decapPk:count 314
attr interpolationmode none
attr source decapPk
attr title "packets decapsulated, count"
scalar Red4Tcp.hC.eth[0].encap decapPk:sum(packetBytes) 14444
attr interpolationmode none
attr source decapPk
attr title "packets decapsulated, sum(packetBytes)"
scalar Red4Tcp.hC.eth[0].encap encapPk:count 314
attr interpolationmode none
attr source encapPk
attr title "packets encapsulated, count"
scalar Red4Tcp.hC.eth[0].encap encapPk:sum(packetBytes) 13800
attr interpolationmode none
attr source encapPk
attr title "packets encapsulated, sum(packetBytes)"
par Red4Tcp.hC.eth[0].mac.queue typename "\"inet.linklayer.ethernet.common.EthernetQueue\""
par Red4Tcp.hC.eth[0].mac.queue displayStringTextFormat "\"contains %p pk (%l) pushed %u\\npulled %o removed %r dropped %d\""
par Red4Tcp.hC.eth[0].mac.queue packetCapacity 10000
par Red4Tcp.hC.eth[0].mac.queue dataCapacity -1b
attr unit b
par Red4Tcp.hC.eth[0].mac.queue dropperClass "\"inet::queueing::PacketAtCollectionEndDropper\""
par Red4Tcp.hC.eth[0].mac.queue comparatorClass "\"inet::EthernetFrameTypeComparator\""
par Red4Tcp.hC.eth[0].mac.queue bufferModule "\"\""
scalar Red4Tcp.hC.eth[0].mac.queue packetPulled:count 314
attr interpolationmode none
attr title "packet pulled, count"
scalar Red4Tcp.hC.eth[0].mac.queue packetPulled:sum(packetBytes) 19452
attr interpolationmode none
attr title "packet pulled, sum(packetBytes)"
statistic Red4Tcp.hC.eth[0].mac.queue queueingTime:histogram
field count 314
field mean 0
field stddev 0
field min 0
field max 0
field sum 0
field sqrsum 0
attr interpolationmode none
attr source queueingTime(packetPulled)
attr title "queueing times, histogram"
attr unit s
bin	-inf	0
bin	-0.5	0
bin	-0.48	0
bin	-0.46	0
bin	-0.44	0
bin	-0.42	0
bin	-0.4	0
bin	-0.38	0
bin	-0.36	0
bin	-0.34	0
bin	-0.32	0
bin	-0.3	0
bin	-0.28	0
bin	-0.26	0
bin	-0.24	0
bin	-0.22	0
bin	-0.2	0
bin	-0.18	0
bin	-0.16	0
bin	-0.14	0
bin	-0.12	0
bin	-0.1	0
bin	-0.08	0
bin	-0.06	0
bin	-0.04	0
bin	-0.02	0
bin	0	314
bin	0.02	0
bin	0.04	0
bin	0.06	0
bin	0.08	0
bin	0.1	0
bin	0.12	0
bin	0.14	0
bin	0.16	0
bin	0.18	0
bin	0.2	0
bin	0.22	0
bin	0.24	0
bin	0.26	0
bin	0.28	0
bin	0.3	0
bin	0.32	0
bin	0.34	0
bin	0.36	0
bin	0.38	0
bin	0.4	0
bin	0.42	0
bin	0.44	0
bin	0.46	0
bin	0.48	0
bin	0.5	0
scalar Red4Tcp.hC.eth[0].mac.queue queueLength:max 1
attr autoWarmupFilter false
attr interpolationmode sample-hold
attr source "warmup(count(packetPushed) - count(packetPulled) - count(packetRemoved) - count(packetDropped))"
attr title "queue length, max"
attr type int
scalar Red4Tcp.hC.eth[0].mac.queue queueLength:timeavg 0
attr autoWarmupFilter false
attr interpolationmode sample-hold
attr source "warmup(count(packetPushed) - count(packetPulled) - count(packetRemoved) - count(packetDropped))"
attr title "queue length, timeavg"
attr type int
scalar Red4Tcp.hC.eth[0].mac.queue packetPushed:count 314
attr interpolationmode none
attr title "packet pushed, count"
scalar Red4Tcp.hC.eth[0].mac.queue packetPushed:sum(packetBytes) 19452
attr interpolationmode none
attr title "packet pushed, sum(packetBytes)"
scalar Red4Tcp.hC.eth[0].mac.queue packetDropQueueOverflow:count 0
attr interpolationmode none
attr source packetDropReasonIsQueueOverflow(packetDropped)
attr title "packet drops: queue overflow, count"
scalar Red4Tcp.hC.eth[0].mac.queue packetDropQueueOverflow:sum(packetBytes) 0
attr interpolationmode none
attr source packetDropReasonIsQueueOverflow(packetDropped)
attr title "packet drops: queue overflow, sum(packetBytes)"
scalar Red4Tcp.hC.eth[0].mac.queue packetRemoved:count 0
attr interpolationmode none
attr title "packets removed, count"
scalar Red4Tcp.hC.eth[0].mac.queue packetRemoved:sum(packetBytes) 0
attr interpolationmode none
attr title "packets removed, sum(packetBytes)"
par Red4Tcp.hC.eth[0].mac typename "\"inet.linklayer.ethernet.basic.EthernetMac\""
par Red4Tcp.hC.eth[0].mac interfaceTableModule "\"Red4Tcp.hC.interfaceTable\""
par Red4Tcp.hC.eth[0].mac displayStringTextFormat "\"rate: %b\\nsent: %s, rcvd: %r\\nqueue: %q, drop: %d\""
par Red4Tcp.hC.eth[0].mac sendRawBytes false
par Red4Tcp.hC.eth[0].mac promiscuous false
par Red4Tcp.hC.eth[0].mac duplexMode true
par Red4Tcp.hC.eth[0].mac mtu 1500B
attr unit B
par Red4Tcp.hC.eth[0].mac stopOperationExtraTime -1s
attr unit s
par Red4Tcp.hC.eth[0].mac stopOperationTimeout 2s
attr unit s
scalar Red4Tcp.hC.eth[0].mac "simulated time" 1.0019091008
scalar Red4Tcp.hC.eth[0].mac full-duplex 1
scalar Red4Tcp.hC.eth[0].mac "frames/sec sent" 313.40168459322
scalar Red4Tcp.hC.eth[0].mac "frames/sec rcvd" 313.40168459322
scalar Red4Tcp.hC.eth[0].mac "bits/sec sent" 160461.66251173
scalar Red4Tcp.hC.eth[0].mac "bits/sec rcvd" 160461.66251173
scalar Red4Tcp.hC.eth[0].mac "rx channel idle (%)" 99.999548701574
scalar Red4Tcp.hC.eth[0].mac "rx channel utilization (%)" 0.00045129842581424
scalar Red4Tcp.hC.eth[0].mac rxPausePkUnits:count 0
attr interpolationmode none
attr title "pause units received, count"
scalar Red4Tcp.hC.eth[0].mac rxPausePkUnits:sum 0
attr interpolationmode none
attr title "pause units received, sum"
scalar Red4Tcp.hC.eth[0].mac txPausePkUnits:count 0
attr interpolationmode none
attr title "pause units sent, count"
scalar Red4Tcp.hC.eth[0].mac txPausePkUnits:sum 0
attr interpolationmode none
attr title "pause units sent, sum"
scalar Red4Tcp.hC.eth[0].mac rxPkOk:count 314
attr interpolationmode none
attr source rxPkOk
attr title "packets received OK, count"
scalar Red4Tcp.hC.eth[0].mac rxPkOk:sum(packetBytes) 20096
attr interpolationmode none
attr source rxPkOk
attr title "packets received OK, sum(packetBytes)"
scalar Red4Tcp.hC.eth[0].mac txPk:count 314
attr interpolationmode none
attr source packetSentToLower
attr title "packets transmitted, count"
scalar Red4Tcp.hC.eth[0].mac txPk:sum(packetBytes) 20096
attr interpolationmode none
attr source packetSentToLower
attr title "packets transmitted, sum(packetBytes)"
scalar Red4Tcp.hC.eth[0].mac packetReceivedFromUpper:count 314
attr interpolationmode none
attr source packetReceivedFromUpper
attr title "packet bytes from higher layer, count"
scalar Red4Tcp.hC.eth[0].mac packetReceivedFromUpper:sum(packetBytes) 19452
attr interpolationmode none
attr source packetReceivedFromUpper
attr title "packet bytes from higher layer, sum(packetBytes)"
scalar Red4Tcp.hC.eth[0].mac passedUpPk:count 314
attr interpolationmode none
attr source packetSentToUpper
attr title "packets passed to higher layer, count"
scalar Red4Tcp.hC.eth[0].mac passedUpPk:sum(packetBytes) 20096
attr interpolationmode none
attr source packetSentToUpper
attr title "packets passed to higher layer, sum(packetBytes)"
scalar Red4Tcp.hC.eth[0].mac packetDropIncorrectlyReceived:count 0
attr interpolationmode none
attr source packetDropReasonIsIncorrectlyReceived(packetDropped)
attr title "packet drop: incorrectly received, count"
scalar Red4Tcp.hC.eth[0].mac packetDropIncorrectlyReceived:sum(packetBytes) 0
attr interpolationmode none
attr source packetDropReasonIsIncorrectlyReceived(packetDropped)
attr title "packet drop: incorrectly received, sum(packetBytes)"
scalar Red4Tcp.hC.eth[0].mac packetDropInterfaceDown:count 0
attr interpolationmode none
attr source packetDropReasonIsInterfaceDown(packetDropped)
attr title "packet drop: interface down, count"
scalar Red4Tcp.hC.eth[0].mac packetDropInterfaceDown:sum(packetBytes) 0
attr interpolationmode none
attr source packetDropReasonIsInterfaceDown(packetDropped)
attr title "packet drop: interface down, sum(packetBytes)"
scalar Red4Tcp.hC.eth[0].mac packetDropNotAddressedToUs:count 0
attr interpolationmode none
attr source packetDropReasonIsNotAddressedToUs(packetDropped)
attr title "packet drop: not addressed to us, count"
scalar Red4Tcp.hC.eth[0].mac packetDropNotAddressedToUs:sum(packetBytes) 0
attr interpolationmode none
attr source packetDropReasonIsNotAddressedToUs(packetDropped)
attr title "packet drop: not addressed to us, sum(packetBytes)"
par Red4Tcp.hC.eth[0] typename "\"inet.linklayer.ethernet.EthernetInterface\""
par Red4Tcp.hC.eth[0] displayStringTextFormat "\"%a (%i)\\n%m\""
par Red4Tcp.hC.eth[0] recordPcap false
par Red4Tcp.hC.eth[0] numPcapRecorders 0
par Red4Tcp.hC.eth[0] interfaceTableModule "\"Red4Tcp.hC.interfaceTable\""
par Red4Tcp.hC.eth[0] address "\"0A-AA-00-00-00-03\""
par Red4Tcp.hC.eth[0] duplexMode true
par Red4Tcp.hC.eth[0] csmacdSupport false
par Red4Tcp.hC.eth[0] bitrate 0bps
attr unit bps
par Red4Tcp.hC.eth[0] fcsMode "\"declared\""
attr enum declared,computed
par Red4Tcp.hC.ipv4.transportIn.channel typename "\"ned.IdealChannel\""
par Red4Tcp.hC.ipv4.up.out[0].channel typename "\"ned.IdealChannel\""
par Red4Tcp.hC.ipv4.lp.out[2].channel typename "\"ned.IdealChannel\""
par Red4Tcp.hC.ipv4.ifIn.channel typename "\"ned.IdealChannel\""
par Red4Tcp.hC.ipv4.configurator typename "\"inet.networklayer.configurator.ipv4.Ipv4NodeConfigurator\""
par Red4Tcp.hC.ipv4.configurator interfaceTableModule "\"Red4Tcp.hC.interfaceTable\""
par Red4Tcp.hC.ipv4.configurator routingTableModule "\"Red4Tcp.hC.ipv4.routingTable\""
par Red4Tcp.hC.ipv4.configurator networkConfiguratorModule "\"configurator\""
par Red4Tcp.hC.ipv4.configurator configureRoutingTable true
par Red4Tcp.hC.ipv4.routingTable typename "\"inet.networklayer.ipv4.Ipv4RoutingTable\""
par Red4Tcp.hC.ipv4.routingTable interfaceTableModule "\"Red4Tcp.hC.interfaceTable\""
par Red4Tcp.hC.ipv4.routingTable routerId "\"auto\""
par Red4Tcp.hC.ipv4.routingTable netmaskRoutes "\"*\""
par Red4Tcp.hC.ipv4.routingTable forwarding false
par Red4Tcp.hC.ipv4.routingTable multicastForwarding false
par Red4Tcp.hC.ipv4.routingTable useAdminDist false
par Red4Tcp.hC.ipv4.routingTable routingFile "\"\""
par Red4Tcp.hC.ipv4.natTable typename "\"inet.networklayer.ipv4.Ipv4NatTable\""
par Red4Tcp.hC.ipv4.natTable networkProtocolModule "\"^.ip\""
par Red4Tcp.hC.ipv4.natTable config "<config/> at content:1"
par Red4Tcp.hC.ipv4.up typename "\"inet.common.MessageDispatcher\""
par Red4Tcp.hC.ipv4.up displayStringTextFormat "\"processed %p pk (%l)\""
par Red4Tcp.hC.ipv4.igmp typename "\"inet.networklayer.ipv4.Igmpv2\""
par Red4Tcp.hC.ipv4.igmp interfaceTableModule "\"Red4Tcp.hC.interfaceTable\""
par Red4Tcp.hC.ipv4.igmp routingTableModule "\"Red4Tcp.hC.ipv4.routingTable\""
par Red4Tcp.hC.ipv4.igmp crcMode "\"declared\""
attr enum declared,computed
par Red4Tcp.hC.ipv4.igmp enabled true
par Red4Tcp.hC.ipv4.igmp robustnessVariable 2
par Red4Tcp.hC.ipv4.igmp queryInterval 125s
attr unit s
par Red4Tcp.hC.ipv4.igmp queryResponseInterval 10s
attr unit s
par Red4Tcp.hC.ipv4.igmp groupMembershipInterval 260s
attr unit s
par Red4Tcp.hC.ipv4.igmp otherQuerierPresentInterval 255s
attr unit s
par Red4Tcp.hC.ipv4.igmp startupQueryInterval 31.25s
attr unit s
par Red4Tcp.hC.ipv4.igmp startupQueryCount 2
par Red4Tcp.hC.ipv4.igmp lastMemberQueryInterval 1s
attr unit s
par Red4Tcp.hC.ipv4.igmp lastMemberQueryCount 2
par Red4Tcp.hC.ipv4.igmp unsolicitedReportInterval 10s
attr unit s
par Red4Tcp.hC.ipv4.icmp typename "\"inet.networklayer.ipv4.Icmp\""
par Red4Tcp.hC.ipv4.icmp interfaceTableModule "\"Red4Tcp.hC.interfaceTable\""
par Red4Tcp.hC.ipv4.icmp routingTableModule "\"Red4Tcp.hC.ipv4.routingTable\""
par Red4Tcp.hC.ipv4.icmp crcMode "\"declared\""
attr enum declared,computed
par Red4Tcp.hC.ipv4.icmp quoteLength 8B
attr unit B
par Red4Tcp.hC.ipv4.mp typename "\"inet.common.MessageDispatcher\""
par Red4Tcp.hC.ipv4.mp displayStringTextFormat "\"processed %p pk (%l)\""
par Red4Tcp.hC.ipv4.ip typename "\"inet.networklayer.ipv4.Ipv4\""
par Red4Tcp.hC.ipv4.ip interfaceTableModule "\"Red4Tcp.hC.interfaceTable\""
par Red4Tcp.hC.ipv4.ip routingTableModule "\"Red4Tcp.hC.ipv4.routingTable\""
par Red4Tcp.hC.ipv4.ip arpModule "\"Red4Tcp.hC.ipv4.arp\""
par Red4Tcp.hC.ipv4.ip icmpModule "\"Red4Tcp.hC.ipv4.icmp\""
par Red4Tcp.hC.ipv4.ip crcMode "\"declared\""
attr enum declared,computed
par Red4Tcp.hC.ipv4.ip timeToLive 32
par Red4Tcp.hC.ipv4.ip multicastTimeToLive 32
par Red4Tcp.hC.ipv4.ip fragmentTimeout 60s
attr unit s
par Red4Tcp.hC.ipv4.ip limitedBroadcast false
par Red4Tcp.hC.ipv4.ip directBroadcastInterfaces "\"\""
scalar Red4Tcp.hC.ipv4.ip packetDropAddressResolutionFailed:count 0
attr interpolationmode none
attr source packetDropReasonIsAddressResolutionFailed(packetDropped)
attr title "packet drop: address resolution failed, count"
scalar Red4Tcp.hC.ipv4.ip packetDropAddressResolutionFailed:sum(packetBytes) 0
attr interpolationmode none
attr source packetDropReasonIsAddressResolutionFailed(packetDropped)
attr title "packet drop: address resolution failed, sum(packetBytes)"
scalar Red4Tcp.hC.ipv4.ip packetDropHopLimitReached:count 0
attr interpolationmode none
attr source packetDropReasonIsHopLimitReached(packetDropped)
attr title "packet drop: hop limit reached, count"
scalar Red4Tcp.hC.ipv4.ip packetDropHopLimitReached:sum(packetBytes) 0
attr interpolationmode none
attr source packetDropReasonIsHopLimitReached(packetDropped)
attr title "packet drop: hop limit reached, sum(packetBytes)"
scalar Red4Tcp.hC.ipv4.ip packetDropForwardingDisabled:count 0
attr interpolationmode none
attr source packetDropReasonIsForwardingDisabled(packetDropped)
attr title "packet drop: forwarding disabled, count"
scalar Red4Tcp.hC.ipv4.ip packetDropForwardingDisabled:sum(packetBytes) 0
attr interpolationmode none
attr source packetDropReasonIsForwardingDisabled(packetDropped)
attr title "packet drop: forwarding disabled, sum(packetBytes)"
scalar Red4Tcp.hC.ipv4.ip packetDropNoInterfaceFound:count 0
attr interpolationmode none
attr source packetDropReasonIsNoInterfaceFound(packetDropped)
attr title "packet drop: no interface found, count"
scalar Red4Tcp.hC.ipv4.ip packetDropNoInterfaceFound:sum(packetBytes) 0
attr interpolationmode none
attr source packetDropReasonIsNoInterfaceFound(packetDropped)
attr title "packet drop: no interface found, sum(packetBytes)"
scalar Red4Tcp.hC.ipv4.ip packetDropNoRouteFound:count 0
attr interpolationmode none
attr source packetDropReasonIsNoRouteFound(packetDropped)
attr title "packet drop: no route found, count"
scalar Red4Tcp.hC.ipv4.ip packetDropNoRouteFound:sum(packetBytes) 0
attr interpolationmode none
attr source packetDropReasonIsNoRouteFound(packetDropped)
attr title "packet drop: no route found, sum(packetBytes)"
scalar Red4Tcp.hC.ipv4.ip packetDropUndefined:count 0
attr interpolationmode none
attr source packetDropReasonIsUndefined(packetDropped)
attr title "packet drop: undefined, count"
scalar Red4Tcp.hC.ipv4.ip packetDropUndefined:sum(packetBytes) 0
attr interpolationmode none
attr source packetDropReasonIsUndefined(packetDropped)
attr title "packet drop: undefined, sum(packetBytes)"
par Red4Tcp.hC.ipv4.arp typename "\"inet.networklayer.arp.ipv4.Arp\""
par Red4Tcp.hC.ipv4.arp interfaceTableModule "\"Red4Tcp.hC.interfaceTable\""
par Red4Tcp.hC.ipv4.arp routingTableModule "\"Red4Tcp.hC.ipv4.routingTable\""
par Red4Tcp.hC.ipv4.arp retryTimeout 1s
attr unit s
par Red4Tcp.hC.ipv4.arp retryCount 3
par Red4Tcp.hC.ipv4.arp cacheTimeout 120s
attr unit s
par Red4Tcp.hC.ipv4.arp proxyArpInterfaces "\"\""
scalar Red4Tcp.hC.ipv4.arp arpResolutionFailed:count 0
attr title "ARP failed resolutions, count"
scalar Red4Tcp.hC.ipv4.arp arpResolutionCompleted:count 1
attr title "ARP completed resolutions, count"
scalar Red4Tcp.hC.ipv4.arp arpResolutionInitiated:count 1
attr title "ARP initiated resolutions, count"
scalar Red4Tcp.hC.ipv4.arp arpReplySent:count 0
attr source arpReplySent
attr title "ARP replies sent, count"
scalar Red4Tcp.hC.ipv4.arp arpReplySent:sum(packetBytes) 0
attr source arpReplySent
attr title "ARP replies sent, sum(packetBytes)"
scalar Red4Tcp.hC.ipv4.arp arpRequestSent:count 1
attr source arpRequestSent
attr title "ARP request sent, count"
scalar Red4Tcp.hC.ipv4.arp arpRequestSent:sum(packetBytes) 28
attr source arpRequestSent
attr title "ARP request sent, sum(packetBytes)"
par Red4Tcp.hC.ipv4.lp typename "\"inet.common.MessageDispatcher\""
par Red4Tcp.hC.ipv4.lp displayStringTextFormat "\"processed %p pk (%l)\""
par Red4Tcp.hC.ipv4 typename "\"inet.networklayer.ipv4.Ipv4NetworkLayer\""
par Red4Tcp.hC.ipv4 forwarding false
par Red4Tcp.hC.ipv4 multicastForwarding false
par Red4Tcp.hC.ipv4 interfaceTableModule "\"Red4Tcp.hC.interfaceTable\""
par Red4Tcp.hC.ipv4 displayStringTextFormat "\"%i\""
par Red4Tcp.hC.nl typename "\"inet.common.MessageDispatcher\""
par Red4Tcp.hC.nl displayStringTextFormat "\"processed %p pk (%l)\""
par Red4Tcp.hC.udp typename "\"inet.transportlayer.udp.Udp\""
par Red4Tcp.hC.udp interfaceTableModule "\"Red4Tcp.hC.interfaceTable\""
par Red4Tcp.hC.udp icmpModule "\"^.ipv4.icmp\""
par Red4Tcp.hC.udp icmpv6Module "\"^.ipv6.icmpv6\""
par Red4Tcp.hC.udp crcMode "\"declared\""
attr enum disabled,declared,computed
scalar Red4Tcp.hC.udp packetReceived:count 0
attr interpolationmode none
attr source packetReceived
attr title "packets received, count"
scalar Red4Tcp.hC.udp packetReceived:sum(packetBytes) 0
attr interpolationmode none
attr source packetReceived
attr title "packets received, sum(packetBytes)"
scalar Red4Tcp.hC.udp packetSent:count 0
attr interpolationmode none
attr source packetSent
attr title "packets sent, count"
scalar Red4Tcp.hC.udp packetSent:sum(packetBytes) 0
attr interpolationmode none
attr source packetSent
attr title "packets sent, sum(packetBytes)"
scalar Red4Tcp.hC.udp passedUpPk:count 0
attr interpolationmode none
attr source packetSentToUpper
attr title "packets passed up, count"
scalar Red4Tcp.hC.udp droppedPkWrongPort:count 0
attr interpolationmode none
attr source packetDropReasonIsNoPortFound(packetDropped)
attr title "packets dropped (wrong port), count"
scalar Red4Tcp.hC.udp droppedPkBadChecksum:count 0
attr interpolationmode none
attr source packetDropReasonIsIncorrectlyReceived(packetDropped)
attr title "packets dropped (checksum error), count"
par Red4Tcp.hC.tcp.conn-787 typename "\"inet.transportlayer.tcp.TcpConnection\""
par Red4Tcp.hC.tcp typename "\"inet.transportlayer.tcp.Tcp\""
par Red4Tcp.hC.tcp crcMode "\"declared\""
attr enum declared,computed
par Red4Tcp.hC.tcp advertisedWindow 7504
par Red4Tcp.hC.tcp delayedAcksEnabled false
par Red4Tcp.hC.tcp nagleEnabled true
par Red4Tcp.hC.tcp limitedTransmitEnabled false
par Red4Tcp.hC.tcp increasedIWEnabled false
par Red4Tcp.hC.tcp sackSupport false
par Red4Tcp.hC.tcp windowScalingSupport false
par Red4Tcp.hC.tcp windowScalingFactor -1
par Red4Tcp.hC.tcp timestampSupport false
par Red4Tcp.hC.tcp mss 536
par Red4Tcp.hC.tcp msl 120s
attr unit s
par Red4Tcp.hC.tcp tcpAlgorithmClass "\"TcpReno\""
attr enum TcpVegas,TcpWestwood,TcpNewReno,TcpReno,TcpTahoe,TcpNoCongestionControl
par Red4Tcp.hC.tcp useDataNotification false
par Red4Tcp.hC.tcp dupthresh 3
par Red4Tcp.hC.tcp initialSsthresh 4294967295
par Red4Tcp.hC.tcp stopOperationExtraTime 0s
attr unit s
par Red4Tcp.hC.tcp stopOperationTimeout 2s
attr unit s
par Red4Tcp.hC.tcp ecnWillingness false
par Red4Tcp.hC.tcp dctcpGamma 0.0625
par Red4Tcp.hC.rdma typename "\"inet.transportlayer.rdma.Rdma\""
par Red4Tcp.hC.rdma interfaceTableModule "\"Red4Tcp.hC.interfaceTable\""
par Red4Tcp.hC.rdma crcMode "\"declared\""
attr enum disabled,declared,computed
scalar Red4Tcp.hC.rdma packetReceived:count 0
attr interpolationmode none
attr source packetReceived
attr title "packets received, count"
scalar Red4Tcp.hC.rdma packetReceived:sum(packetBytes) 0
attr interpolationmode none
attr source packetReceived
attr title "packets received, sum(packetBytes)"
scalar Red4Tcp.hC.rdma packetSent:count 0
attr interpolationmode none
attr source packetSent
attr title "packets sent, count"
scalar Red4Tcp.hC.rdma packetSent:sum(packetBytes) 0
attr interpolationmode none
attr source packetSent
attr title "packets sent, sum(packetBytes)"
scalar Red4Tcp.hC.rdma passedUpPk:count 0
attr interpolationmode none
attr source packetSentToUpper
attr title "packets passed up, count"
scalar Red4Tcp.hC.rdma droppedPkWrongPort:count 0
attr interpolationmode none
attr source packetDropReasonIsNoPortFound(packetDropped)
[...]
attr title "queue length, max"
attr type int
scalar Red4Tcp.switch2.eth[1].mac.queue queueLength:timeavg 0
attr autoWarmupFilter false
attr interpolationmode sample-hold
attr source "warmup(count(packetPushed) - count(packetPulled) - count(packetRemoved) - count(packetDropped))"
attr title "queue length, timeavg"
attr type int
scalar Red4Tcp.switch2.eth[1].mac.queue packetPushed:count 2
attr interpolationmode none
attr title "packet pushed, count"
scalar Red4Tcp.switch2.eth[1].mac.queue packetPushed:sum(packetBytes) 128
attr interpolationmode none
attr title "packet pushed, sum(packetBytes)"
scalar Red4Tcp.switch2.eth[1].mac.queue packetDropQueueOverflow:count 0
attr interpolationmode none
attr source packetDropReasonIsQueueOverflow(packetDropped)
attr title "packet drops: queue overflow, count"
scalar Red4Tcp.switch2.eth[1].mac.queue packetDropQueueOverflow:sum(packetBytes) 0
attr interpolationmode none
attr source packetDropReasonIsQueueOverflow(packetDropped)
attr title "packet drops: queue overflow, sum(packetBytes)"
scalar Red4Tcp.switch2.eth[1].mac.queue packetRemoved:count 0
attr interpolationmode none
attr title "packets removed, count"
scalar Red4Tcp.switch2.eth[1].mac.queue packetRemoved:sum(packetBytes) 0
attr interpolationmode none
attr title "packets removed, sum(packetBytes)"
par Red4Tcp.switch2.eth[1].mac typename "\"inet.linklayer.ethernet.basic.EthernetMac\""
par Red4Tcp.switch2.eth[1].mac interfaceTableModule "\"Red4Tcp.switch2.interfaceTable\""
par Red4Tcp.switch2.eth[1].mac displayStringTextFormat "\"rate: %b\\nsent: %s, rcvd: %r\\nqueue: %q, drop: %d\""
par Red4Tcp.switch2.eth[1].mac sendRawBytes false
par Red4Tcp.switch2.eth[1].mac promiscuous true
par Red4Tcp.switch2.eth[1].mac duplexMode true
par Red4Tcp.switch2.eth[1].mac mtu 1500B
attr unit B
par Red4Tcp.switch2.eth[1].mac stopOperationExtraTime -1s
attr unit s
par Red4Tcp.switch2.eth[1].mac stopOperationTimeout 2s
attr unit s
scalar Red4Tcp.switch2.eth[1].mac "simulated time" 1.0019091008
scalar Red4Tcp.switch2.eth[1].mac full-duplex 1
scalar Red4Tcp.switch2.eth[1].mac "frames/sec sent" 1.9961890738422
scalar Red4Tcp.switch2.eth[1].mac "frames/sec rcvd" 0
scalar Red4Tcp.switch2.eth[1].mac "bits/sec sent" 1022.0488058072
scalar Red4Tcp.switch2.eth[1].mac "bits/sec rcvd" 0
scalar Red4Tcp.switch2.eth[1].mac "rx channel idle (%)" 100
scalar Red4Tcp.switch2.eth[1].mac "rx channel utilization (%)" 0
scalar Red4Tcp.switch2.eth[1].mac rxPausePkUnits:count 0
attr interpolationmode none
attr title "pause units received, count"
scalar Red4Tcp.switch2.eth[1].mac rxPausePkUnits:sum 0
attr interpolationmode none
attr title "pause units received, sum"
scalar Red4Tcp.switch2.eth[1].mac txPausePkUnits:count 0
attr interpolationmode none
attr title "pause units sent, count"
scalar Red4Tcp.switch2.eth[1].mac txPausePkUnits:sum 0
attr interpolationmode none
attr title "pause units sent, sum"
scalar Red4Tcp.switch2.eth[1].mac rxPkOk:count 0
attr interpolationmode none
attr source rxPkOk
attr title "packets received OK, count"
scalar Red4Tcp.switch2.eth[1].mac rxPkOk:sum(packetBytes) 0
attr interpolationmode none
attr source rxPkOk
attr title "packets received OK, sum(packetBytes)"
scalar Red4Tcp.switch2.eth[1].mac txPk:count 2
attr interpolationmode none
attr source packetSentToLower
attr title "packets transmitted, count"
scalar Red4Tcp.switch2.eth[1].mac txPk:sum(packetBytes) 128
attr interpolationmode none
attr source packetSentToLower
attr title "packets transmitted, sum(packetBytes)"
scalar Red4Tcp.switch2.eth[1].mac packetReceivedFromUpper:count 2
attr interpolationmode none
attr source packetReceivedFromUpper
attr title "packet bytes from higher layer, count"
scalar Red4Tcp.switch2.eth[1].mac packetReceivedFromUpper:sum(packetBytes) 128
attr interpolationmode none
attr source packetReceivedFromUpper
attr title "packet bytes from higher layer, sum(packetBytes)"
scalar Red4Tcp.switch2.eth[1].mac passedUpPk:count 0
attr interpolationmode none
attr source packetSentToUpper
attr title "packets passed to higher layer, count"
scalar Red4Tcp.switch2.eth[1].mac passedUpPk:sum(packetBytes) 0
attr interpolationmode none
attr source packetSentToUpper
attr title "packets passed to higher layer, sum(packetBytes)"
scalar Red4Tcp.switch2.eth[1].mac packetDropIncorrectlyReceived:count 0
attr interpolationmode none
attr source packetDropReasonIsIncorrectlyReceived(packetDropped)
attr title "packet drop: incorrectly received, count"
scalar Red4Tcp.switch2.eth[1].mac packetDropIncorrectlyReceived:sum(packetBytes) 0
attr interpolationmode none
attr source packetDropReasonIsIncorrectlyReceived(packetDropped)
attr title "packet drop: incorrectly received, sum(packetBytes)"
scalar Red4Tcp.switch2.eth[1].mac packetDropInterfaceDown:count 0
attr interpolationmode none
attr source packetDropReasonIsInterfaceDown(packetDropped)
attr title "packet drop: interface down, count"
scalar Red4Tcp.switch2.eth[1].mac packetDropInterfaceDown:sum(packetBytes) 0
attr interpolationmode none
attr source packetDropReasonIsInterfaceDown(packetDropped)
attr title "packet drop: interface down, sum(packetBytes)"
scalar Red4Tcp.switch2.eth[1].mac packetDropNotAddressedToUs:count 0
attr interpolationmode none
attr source packetDropReasonIsNotAddressedToUs(packetDropped)
attr title "packet drop: not addressed to us, count"
scalar Red4Tcp.switch2.eth[1].mac packetDropNotAddressedToUs:sum(packetBytes) 0
attr interpolationmode none
attr source packetDropReasonIsNotAddressedToUs(packetDropped)
attr title "packet drop: not addressed to us, sum(packetBytes)"
par Red4Tcp.switch2.eth[1] typename "\"inet.linklayer.ethernet.EthernetInterface\""
par Red4Tcp.switch2.eth[1] displayStringTextFormat "\"%a (%i)\\n%m\""
par Red4Tcp.switch2.eth[1] recordPcap false
par Red4Tcp.switch2.eth[1] numPcapRecorders 0
par Red4Tcp.switch2.eth[1] interfaceTableModule "\"Red4Tcp.switch2.interfaceTable\""
par Red4Tcp.switch2.eth[1] address "\"0A-AA-00-00-00-09\""
par Red4Tcp.switch2.eth[1] duplexMode true
par Red4Tcp.switch2.eth[1] csmacdSupport false
par Red4Tcp.switch2.eth[1] bitrate 0bps
attr unit bps
par Red4Tcp.switch2.eth[1] fcsMode "\"declared\""
attr enum declared,computed
par Red4Tcp.switch2.eth[2].mac.phys$o.channel typename "\"ned.IdealChannel\""
par Red4Tcp.switch2.eth[2].phys$i.channel typename "\"ned.IdealChannel\""
par Red4Tcp.switch2.eth[2].mac.queue typename "\"inet.linklayer.ethernet.common.EthernetQueue\""
par Red4Tcp.switch2.eth[2].mac.queue displayStringTextFormat "\"contains %p pk (%l) pushed %u\\npulled %o removed %r dropped %d\""
par Red4Tcp.switch2.eth[2].mac.queue packetCapacity 10000
par Red4Tcp.switch2.eth[2].mac.queue dataCapacity -1b
attr unit b
par Red4Tcp.switch2.eth[2].mac.queue dropperClass "\"inet::queueing::PacketAtCollectionEndDropper\""
par Red4Tcp.switch2.eth[2].mac.queue comparatorClass "\"inet::EthernetFrameTypeComparator\""
par Red4Tcp.switch2.eth[2].mac.queue bufferModule "\"\""
scalar Red4Tcp.switch2.eth[2].mac.queue packetPulled:count 314
attr interpolationmode none
attr title "packet pulled, count"
scalar Red4Tcp.switch2.eth[2].mac.queue packetPulled:sum(packetBytes) 20096
attr interpolationmode none
attr title "packet pulled, sum(packetBytes)"
statistic Red4Tcp.switch2.eth[2].mac.queue queueingTime:histogram
field count 314
field mean 0
field stddev 0
field min 0
field max 0
field sum 0
field sqrsum 0
attr interpolationmode none
attr source queueingTime(packetPulled)
attr title "queueing times, histogram"
attr unit s
bin	-inf	0
bin	-0.5	0
bin	-0.48	0
bin	-0.46	0
bin	-0.44	0
bin	-0.42	0
bin	-0.4	0
bin	-0.38	0
bin	-0.36	0
bin	-0.34	0
bin	-0.32	0
bin	-0.3	0
bin	-0.28	0
bin	-0.26	0
bin	-0.24	0
bin	-0.22	0
bin	-0.2	0
bin	-0.18	0
bin	-0.16	0
bin	-0.14	0
bin	-0.12	0
bin	-0.1	0
bin	-0.08	0
bin	-0.06	0
bin	-0.04	0
bin	-0.02	0
bin	0	314
bin	0.02	0
bin	0.04	0
bin	0.06	0
bin	0.08	0
bin	0.1	0
bin	0.12	0
bin	0.14	0
bin	0.16	0
bin	0.18	0
bin	0.2	0
bin	0.22	0
bin	0.24	0
bin	0.26	0
bin	0.28	0
bin	0.3	0
bin	0.32	0
bin	0.34	0
bin	0.36	0
bin	0.38	0
bin	0.4	0
bin	0.42	0
bin	0.44	0
bin	0.46	0
bin	0.48	0
bin	0.5	0
scalar Red4Tcp.switch2.eth[2].mac.queue queueLength:max 1
attr autoWarmupFilter false
attr interpolationmode sample-hold
attr source "warmup(count(packetPushed) - count(packetPulled) - count(packetRemoved) - count(packetDropped))"
attr title "queue length, max"
attr type int
scalar Red4Tcp.switch2.eth[2].mac.queue queueLength:timeavg 0
attr autoWarmupFilter false
attr interpolationmode sample-hold
attr source "warmup(count(packetPushed) - count(packetPulled) - count(packetRemoved) - count(packetDropped))"
attr title "queue length, timeavg"
attr type int
scalar Red4Tcp.switch2.eth[2].mac.queue packetPushed:count 314
attr interpolationmode none
attr title "packet pushed, count"
scalar Red4Tcp.switch2.eth[2].mac.queue packetPushed:sum(packetBytes) 20096
attr interpolationmode none
attr title "packet pushed, sum(packetBytes)"
scalar Red4Tcp.switch2.eth[2].mac.queue packetDropQueueOverflow:count 0
attr interpolationmode none
attr source packetDropReasonIsQueueOverflow(packetDropped)
attr title "packet drops: queue overflow, count"
scalar Red4Tcp.switch2.eth[2].mac.queue packetDropQueueOverflow:sum(packetBytes) 0
attr interpolationmode none
attr source packetDropReasonIsQueueOverflow(packetDropped)
attr title "packet drops: queue overflow, sum(packetBytes)"
scalar Red4Tcp.switch2.eth[2].mac.queue packetRemoved:count 0
attr interpolationmode none
attr title "packets removed, count"
scalar Red4Tcp.switch2.eth[2].mac.queue packetRemoved:sum(packetBytes) 0
attr interpolationmode none
attr title "packets removed, sum(packetBytes)"
par Red4Tcp.switch2.eth[2].mac typename "\"inet.linklayer.ethernet.basic.EthernetMac\""
par Red4Tcp.switch2.eth[2].mac interfaceTableModule "\"Red4Tcp.switch2.interfaceTable\""
par Red4Tcp.switch2.eth[2].mac displayStringTextFormat "\"rate: %b\\nsent: %s, rcvd: %r\\nqueue: %q, drop: %d\""
par Red4Tcp.switch2.eth[2].mac sendRawBytes false
par Red4Tcp.switch2.eth[2].mac promiscuous true
par Red4Tcp.switch2.eth[2].mac duplexMode true
par Red4Tcp.switch2.eth[2].mac mtu 1500B
attr unit B
par Red4Tcp.switch2.eth[2].mac stopOperationExtraTime -1s
attr unit s
par Red4Tcp.switch2.eth[2].mac stopOperationTimeout 2s
attr unit s
scalar Red4Tcp.switch2.eth[2].mac "simulated time" 1.0019091008
scalar Red4Tcp.switch2.eth[2].mac full-duplex 1
scalar Red4Tcp.switch2.eth[2].mac "frames/sec sent" 313.40168459322
scalar Red4Tcp.switch2.eth[2].mac "frames/sec rcvd" 313.40168459322
scalar Red4Tcp.switch2.eth[2].mac "bits/sec sent" 160461.66251173
scalar Red4Tcp.switch2.eth[2].mac "bits/sec rcvd" 160461.66251173
scalar Red4Tcp.switch2.eth[2].mac "rx channel idle (%)" 99.999548701574
scalar Red4Tcp.switch2.eth[2].mac "rx channel utilization (%)" 0.00045129842581424
scalar Red4Tcp.switch2.eth[2].mac rxPausePkUnits:count 0
attr interpolationmode none
attr title "pause units received, count"
scalar Red4Tcp.switch2.eth[2].mac rxPausePkUnits:sum 0
attr interpolationmode none
attr title "pause units received, sum"
scalar Red4Tcp.switch2.eth[2].mac txPausePkUnits:count 0
attr interpolationmode none
attr title "pause units sent, count"
scalar Red4Tcp.switch2.eth[2].mac txPausePkUnits:sum 0
attr interpolationmode none
attr title "pause units sent, sum"
scalar Red4Tcp.switch2.eth[2].mac rxPkOk:count 314
attr interpolationmode none
attr source rxPkOk
attr title "packets received OK, count"
scalar Red4Tcp.switch2.eth[2].mac rxPkOk:sum(packetBytes) 20096
attr interpolationmode none
attr source rxPkOk
attr title "packets received OK, sum(packetBytes)"
scalar Red4Tcp.switch2.eth[2].mac txPk:count 314
attr interpolationmode none
attr source packetSentToLower
attr title "packets transmitted, count"
scalar Red4Tcp.switch2.eth[2].mac txPk:sum(packetBytes) 20096
attr interpolationmode none
attr source packetSentToLower
attr title "packets transmitted, sum(packetBytes)"
scalar Red4Tcp.switch2.eth[2].mac packetReceivedFromUpper:count 314
attr interpolationmode none
attr source packetReceivedFromUpper
attr title "packet bytes from higher layer, count"
scalar Red4Tcp.switch2.eth[2].mac packetReceivedFromUpper:sum(packetBytes) 20096
attr interpolationmode none
attr source packetReceivedFromUpper
attr title "packet bytes from higher layer, sum(packetBytes)"
scalar Red4Tcp.switch2.eth[2].mac passedUpPk:count 314
attr interpolationmode none
attr source packetSentToUpper
attr title "packets passed to higher layer, count"
scalar Red4Tcp.switch2.eth[2].mac passedUpPk:sum(packetBytes) 20096
attr interpolationmode none
attr source packetSentToUpper
attr title "packets passed to higher layer, sum(packetBytes)"
scalar Red4Tcp.switch2.eth[2].mac packetDropIncorrectlyReceived:count 0
attr interpolationmode none
attr source packetDropReasonIsIncorrectlyReceived(packetDropped)
attr title "packet drop: incorrectly received, count"
scalar Red4Tcp.switch2.eth[2].mac packetDropIncorrectlyReceived:sum(packetBytes) 0
attr interpolationmode none
attr source packetDropReasonIsIncorrectlyReceived(packetDropped)
attr title "packet drop: incorrectly received, sum(packetBytes)"
scalar Red4Tcp.switch2.eth[2].mac packetDropInterfaceDown:count 0
attr interpolationmode none
attr source packetDropReasonIsInterfaceDown(packetDropped)
attr title "packet drop: interface down, count"
scalar Red4Tcp.switch2.eth[2].mac packetDropInterfaceDown:sum(packetBytes) 0
attr interpolationmode none
attr source packetDropReasonIsInterfaceDown(packetDropped)
attr title "packet drop: interface down, sum(packetBytes)"
scalar Red4Tcp.switch2.eth[2].mac packetDropNotAddressedToUs:count 0
attr interpolationmode none
attr source packetDropReasonIsNotAddressedToUs(packetDropped)
attr title "packet drop: not addressed to us, count"
scalar Red4Tcp.switch2.eth[2].mac packetDropNotAddressedToUs:sum(packetBytes) 0
attr interpolationmode none
attr source packetDropReasonIsNotAddressedToUs(packetDropped)
attr title "packet drop: not addressed to us, sum(packetBytes)"
par Red4Tcp.switch2.eth[2] typename "\"inet.linklayer.ethernet.EthernetInterface\""
par Red4Tcp.switch2.eth[2] displayStringTextFormat "\"%a (%i)\\n%m\""
par Red4Tcp.switch2.eth[2] recordPcap false
par Red4Tcp.switch2.eth[2] numPcapRecorders 0
par Red4Tcp.switch2.eth[2] interfaceTableModule "\"Red4Tcp.switch2.interfaceTable\""
par Red4Tcp.switch2.eth[2] address "\"0A-AA-00-00-00-0A\""
par Red4Tcp.switch2.eth[2] duplexMode true
par Red4Tcp.switch2.eth[2] csmacdSupport false
par Red4Tcp.switch2.eth[2] bitrate 0bps
attr unit bps
par Red4Tcp.switch2.eth[2] fcsMode "\"declared\""
attr enum declared,computed
par Red4Tcp.switch2.encap typename "\"inet.linklayer.ethernet.basic.EthernetEncapsulation\""
par Red4Tcp.switch2.encap interfaceTableModule "\"Red4Tcp.switch2.interfaceTable\""
par Red4Tcp.switch2.encap useSNAP false
par Red4Tcp.switch2.encap fcsMode "\"declared\""
attr enum declared,computed
par Red4Tcp.switch2.encap registerProtocol true
par Red4Tcp.switch2.encap stopOperationExtraTime -1s
attr unit s
par Red4Tcp.switch2.encap stopOperationTimeout 2s
attr unit s
scalar Red4Tcp.switch2.encap pauseSent:count 0
attr title "pause sent, count"
scalar Red4Tcp.switch2.encap pauseSent:sum 0
attr title "pause sent, sum"
scalar Red4Tcp.switch2.encap decapPk:count 0
attr interpolationmode none
attr source decapPk
attr title "packets decapsulated, count"
scalar Red4Tcp.switch2.encap decapPk:sum(packetBytes) 0
attr interpolationmode none
attr source decapPk
attr title "packets decapsulated, sum(packetBytes)"
scalar Red4Tcp.switch2.encap encapPk:count 0
attr interpolationmode none
attr source encapPk
attr title "packets encapsulated, count"
scalar Red4Tcp.switch2.encap encapPk:sum(packetBytes) 0
attr interpolationmode none
attr source encapPk
attr title "packets encapsulated, sum(packetBytes)"
par Red4Tcp.switch2.rl typename "\"inet.common.MessageDispatcher\""
par Red4Tcp.switch2.rl displayStringTextFormat "\"processed %p pk (%l)\""
par Red4Tcp.switch2.ieee8021q.qTagHeaderInserter.out.channel typename "\"ned.IdealChannel\""
par Red4Tcp.switch2.ieee8021q.lowerLayerIn.channel typename "\"ned.IdealChannel\""
par Red4Tcp.switch2.ieee8021q.qTagHeaderInserter typename "\"inet.linklayer.ieee8021q.Ieee8021qTagEpdHeaderInserter\""
par Red4Tcp.switch2.ieee8021q.qTagHeaderInserter displayStringTextFormat "\"processed %p pk (%l)\""
par Red4Tcp.switch2.ieee8021q.qTagHeaderInserter vlanTagType "\"c\""
attr enum c,s
par Red4Tcp.switch2.ieee8021q.qTagHeaderInserter nextProtocol "\"ethernetmac\""
par Red4Tcp.switch2.ieee8021q.qTagHeaderInserter defaultVlanId -1
par Red4Tcp.switch2.ieee8021q.qTagHeaderInserter defaultUserPriority -1
scalar Red4Tcp.switch2.ieee8021q.qTagHeaderInserter packetPulled:count 0
attr interpolationmode none
attr title "packets pulled, count"
scalar Red4Tcp.switch2.ieee8021q.qTagHeaderInserter packetPulled:sum(packetBytes) 0
attr interpolationmode none
attr title "packets pulled, sum(packetBytes)"
scalar Red4Tcp.switch2.ieee8021q.qTagHeaderInserter packetPushed:count 0
attr interpolationmode none
attr title "packets pushed, count"
scalar Red4Tcp.switch2.ieee8021q.qTagHeaderInserter packetPushed:sum(packetBytes) 0
attr interpolationmode none
attr title "packets pushed, sum(packetBytes)"
par Red4Tcp.switch2.ieee8021q.qTagHeaderChecker typename "\"inet.linklayer.ieee8021q.Ieee8021qTagEpdHeaderChecker\""
par Red4Tcp.switch2.ieee8021q.qTagHeaderChecker displayStringTextFormat "\"dropped %d/%p pk (%k/%l)\""
par Red4Tcp.switch2.ieee8021q.qTagHeaderChecker vlanTagType "\"c\""
attr enum c,s
par Red4Tcp.switch2.ieee8021q.qTagHeaderChecker vlanIdFilter "\"\""
scalar Red4Tcp.switch2.ieee8021q.qTagHeaderChecker packetPulled:count 0
attr interpolationmode none
attr title "packets pulled, count"
scalar Red4Tcp.switch2.ieee8021q.qTagHeaderChecker packetPulled:sum(packetBytes) 0
attr interpolationmode none
attr title "packets pulled, sum(packetBytes)"
scalar Red4Tcp.switch2.ieee8021q.qTagHeaderChecker packetPushed:count 0
attr interpolationmode none
attr title "packets pushed, count"
scalar Red4Tcp.switch2.ieee8021q.qTagHeaderChecker packetPushed:sum(packetBytes) 0
attr interpolationmode none
attr title "packets pushed, sum(packetBytes)"
scalar Red4Tcp.switch2.ieee8021q.qTagHeaderChecker packetDropped:count 0
attr interpolationmode none
attr title "packets dropped, count"
scalar Red4Tcp.switch2.ieee8021q.qTagHeaderChecker packetDropped:sum(packetBytes) 0
attr interpolationmode none
attr title "packets dropped, sum(packetBytes)"
par Red4Tcp.switch2.ieee8021q typename "\"inet.linklayer.ieee8021q.Ieee8021qLayer\""
par Red4Tcp.switch2.ieee8021q vlanTagType "\"c\""
par Red4Tcp.switch2.ieee8021q hasSocketSupport false
par Red4Tcp.switch2 typename "\"inet.node.ethernet.EthernetSwitch\""
par Red4Tcp.switch2 numPcapRecorders 0
par Red4Tcp.switch2 hasStatus false
par Red4Tcp.switch2 hasStp false
par Red4Tcp.switch2 enableCutthrough false
par Red4Tcp.switch2 fcsMode "\"declared\""
attr enum declared,computed
par Red4Tcp.switch2 spanningTreeProtocol "\"Stp\""
par Red4Tcp.switch2 numEthInterfaces 0
par Red4Tcp.configurator typename "\"inet.networklayer.configurator.ipv4.Ipv4NetworkConfigurator\""
par Red4Tcp.configurator minLinkWeight 0.001
par Red4Tcp.configurator configureIsolatedNetworksSeparatly false
par Red4Tcp.configurator config "<config>...</config> at content:1"
par Red4Tcp.configurator assignAddresses true
par Red4Tcp.configurator assignUniqueAddresses true
par Red4Tcp.configurator assignDisjunctSubnetAddresses true
par Red4Tcp.configurator addStaticRoutes true
par Red4Tcp.configurator addDefaultRoutes true
par Red4Tcp.configurator addSubnetRoutes true
par Red4Tcp.configurator addDirectRoutes true
par Red4Tcp.configurator optimizeRoutes true
par Red4Tcp.configurator dumpTopology false
par Red4Tcp.configurator dumpLinks false
par Red4Tcp.configurator dumpAddresses false
par Red4Tcp.configurator dumpRoutes false
par Red4Tcp.configurator dumpConfig "\"\""
par Red4Tcp typename "\"Red4Tcp\""

