version 3
run General-0-20211001-13:47:25-8619
attr configname General
attr datetime 20211001-13:47:25
attr datetimef 20211001-134725
attr experiment General
attr inifile omnetpp.ini
attr iterationvars ""
attr iterationvarsd ""
attr iterationvarsf ""
attr measurement ""
attr network Red
attr processid 8619
attr repetition 0
attr replication #0
attr resultdir results
attr runnumber 0
attr seedset 0
config image-path ../../inet/images
config network Red
config sim-time-limit 2s
config **.eth[*].duplexMode true
config **.ppp[*].ppp.queue.typename DropTailQueue
config **.H_*.numApps 1
config **.H*.app[0].typename UdpBasicApp
config **.H_*.app[0].localPort 1000
config **.H_*.app[0].destPort 1000
config **.H_0.app[0].destAddresses "\"H_3\""
config **.H_5.app[0].destAddresses "\"H_8\""
config **.H_14.app[0].destAddresses "\"H_2\""
config **.H_2.app[0].destAddresses "\"H_3\""
config **.H_8.app[0].destAddresses "\"H_5\""
config **.H_*.app[*].messageLength 1000B
config **.H_*.app[*].sendInterval 0.001s

par Red.H_0.ethg$o[0].channel typename "\"red16hostudp.simulations.Red.cable\""
par Red.H_0.ethg$o[0].channel disabled false
par Red.H_0.ethg$o[0].channel delay 1e-06s
attr unit s
par Red.H_0.ethg$o[0].channel datarate 4e+10bps
attr unit bps
par Red.H_0.ethg$o[0].channel ber 0
par Red.H_0.ethg$o[0].channel per 0
par Red.SW_1_1.ethg$o[0].channel typename "\"red16hostudp.simulations.Red.cable\""
par Red.SW_1_1.ethg$o[0].channel disabled false
par Red.SW_1_1.ethg$o[0].channel delay 1e-06s
attr unit s
par Red.SW_1_1.ethg$o[0].channel datarate 4e+10bps
attr unit bps
par Red.SW_1_1.ethg$o[0].channel ber 0
par Red.SW_1_1.ethg$o[0].channel per 0
par Red.H_1.ethg$o[0].channel typename "\"red16hostudp.simulations.Red.cable\""
par Red.H_1.ethg$o[0].channel disabled false
par Red.H_1.ethg$o[0].channel delay 1e-06s
attr unit s
par Red.H_1.ethg$o[0].channel datarate 4e+10bps
attr unit bps
par Red.H_1.ethg$o[0].channel ber 0
par Red.H_1.ethg$o[0].channel per 0
par Red.SW_1_1.ethg$o[1].channel typename "\"red16hostudp.simulations.Red.cable\""
par Red.SW_1_1.ethg$o[1].channel disabled false
par Red.SW_1_1.ethg$o[1].channel delay 1e-06s
attr unit s
par Red.SW_1_1.ethg$o[1].channel datarate 4e+10bps
attr unit bps
par Red.SW_1_1.ethg$o[1].channel ber 0
par Red.SW_1_1.ethg$o[1].channel per 0
par Red.H_2.ethg$o[0].channel typename "\"red16hostudp.simulations.Red.cable\""
par Red.H_2.ethg$o[0].channel disabled false
par Red.H_2.ethg$o[0].channel delay 1e-06s
attr unit s
par Red.H_2.ethg$o[0].channel datarate 4e+10bps
attr unit bps
par Red.H_2.ethg$o[0].channel ber 0
par Red.H_2.ethg$o[0].channel per 0
par Red.SW_1_1.ethg$o[2].channel typename "\"red16hostudp.simulations.Red.cable\""
par Red.SW_1_1.ethg$o[2].channel disabled false
par Red.SW_1_1.ethg$o[2].channel delay 1e-06s
attr unit s
par Red.SW_1_1.ethg$o[2].channel datarate 4e+10bps
attr unit bps
par Red.SW_1_1.ethg$o[2].channel ber 0
par Red.SW_1_1.ethg$o[2].channel per 0
par Red.H_3.ethg$o[0].channel typename "\"red16hostudp.simulations.Red.cable\""
par Red.H_3.ethg$o[0].channel disabled false
par Red.H_3.ethg$o[0].channel delay 1e-06s
attr unit s
par Red.H_3.ethg$o[0].channel datarate 4e+10bps
attr unit bps
par Red.H_3.ethg$o[0].channel ber 0
par Red.H_3.ethg$o[0].channel per 0
par Red.SW_1_1.ethg$o[3].channel typename "\"red16hostudp.simulations.Red.cable\""
par Red.SW_1_1.ethg$o[3].channel disabled false
par Red.SW_1_1.ethg$o[3].channel delay 1e-06s
attr unit s
par Red.SW_1_1.ethg$o[3].channel datarate 4e+10bps
attr unit bps
par Red.SW_1_1.ethg$o[3].channel ber 0
par Red.SW_1_1.ethg$o[3].channel per 0
par Red.H_4.ethg$o[0].channel typename "\"red16hostudp.simulations.Red.cable\""
par Red.H_4.ethg$o[0].channel disabled false
par Red.H_4.ethg$o[0].channel delay 1e-06s
attr unit s
par Red.H_4.ethg$o[0].channel datarate 4e+10bps
attr unit bps
par Red.H_4.ethg$o[0].channel ber 0
par Red.H_4.ethg$o[0].channel per 0
par Red.SW_1_2.ethg$o[0].channel typename "\"red16hostudp.simulations.Red.cable\""
par Red.SW_1_2.ethg$o[0].channel disabled false
par Red.SW_1_2.ethg$o[0].channel delay 1e-06s
attr unit s
par Red.SW_1_2.ethg$o[0].channel datarate 4e+10bps
attr unit bps
par Red.SW_1_2.ethg$o[0].channel ber 0
par Red.SW_1_2.ethg$o[0].channel per 0
par Red.H_5.ethg$o[0].channel typename "\"red16hostudp.simulations.Red.cable\""
par Red.H_5.ethg$o[0].channel disabled false
par Red.H_5.ethg$o[0].channel delay 1e-06s
attr unit s
par Red.H_5.ethg$o[0].channel datarate 4e+10bps
attr unit bps
par Red.H_5.ethg$o[0].channel ber 0
par Red.H_5.ethg$o[0].channel per 0
par Red.SW_1_2.ethg$o[1].channel typename "\"red16hostudp.simulations.Red.cable\""
par Red.SW_1_2.ethg$o[1].channel disabled false
par Red.SW_1_2.ethg$o[1].channel delay 1e-06s
attr unit s
par Red.SW_1_2.ethg$o[1].channel datarate 4e+10bps
attr unit bps
par Red.SW_1_2.ethg$o[1].channel ber 0
par Red.SW_1_2.ethg$o[1].channel per 0
par Red.H_6.ethg$o[0].channel typename "\"red16hostudp.simulations.Red.cable\""
par Red.H_6.ethg$o[0].channel disabled false
par Red.H_6.ethg$o[0].channel delay 1e-06s
attr unit s
par Red.H_6.ethg$o[0].channel datarate 4e+10bps
attr unit bps
par Red.H_6.ethg$o[0].channel ber 0
par Red.H_6.ethg$o[0].channel per 0
par Red.SW_1_2.ethg$o[2].channel typename "\"red16hostudp.simulations.Red.cable\""
par Red.SW_1_2.ethg$o[2].channel disabled false
par Red.SW_1_2.ethg$o[2].channel delay 1e-06s
attr unit s
par Red.SW_1_2.ethg$o[2].channel datarate 4e+10bps
attr unit bps
par Red.SW_1_2.ethg$o[2].channel ber 0
par Red.SW_1_2.ethg$o[2].channel per 0
par Red.H_7.ethg$o[0].channel typename "\"red16hostudp.simulations.Red.cable\""
par Red.H_7.ethg$o[0].channel disabled false
par Red.H_7.ethg$o[0].channel delay 1e-06s
attr unit s
par Red.H_7.ethg$o[0].channel datarate 4e+10bps
attr unit bps
par Red.H_7.ethg$o[0].channel ber 0
par Red.H_7.ethg$o[0].channel per 0
par Red.SW_1_2.ethg$o[3].channel typename "\"red16hostudp.simulations.Red.cable\""
par Red.SW_1_2.ethg$o[3].channel disabled false
par Red.SW_1_2.ethg$o[3].channel delay 1e-06s
attr unit s
par Red.SW_1_2.ethg$o[3].channel datarate 4e+10bps
attr unit bps
par Red.SW_1_2.ethg$o[3].channel ber 0
par Red.SW_1_2.ethg$o[3].channel per 0
par Red.H_8.ethg$o[0].channel typename "\"red16hostudp.simulations.Red.cable\""
par Red.H_8.ethg$o[0].channel disabled false
par Red.H_8.ethg$o[0].channel delay 1e-06s
attr unit s
par Red.H_8.ethg$o[0].channel datarate 4e+10bps
attr unit bps
par Red.H_8.ethg$o[0].channel ber 0
par Red.H_8.ethg$o[0].channel per 0
par Red.SW_2_1.ethg$o[0].channel typename "\"red16hostudp.simulations.Red.cable\""
par Red.SW_2_1.ethg$o[0].channel disabled false
par Red.SW_2_1.ethg$o[0].channel delay 1e-06s
attr unit s
par Red.SW_2_1.ethg$o[0].channel datarate 4e+10bps
attr unit bps
par Red.SW_2_1.ethg$o[0].channel ber 0
par Red.SW_2_1.ethg$o[0].channel per 0
par Red.H_9.ethg$o[0].channel typename "\"red16hostudp.simulations.Red.cable\""
par Red.H_9.ethg$o[0].channel disabled false
par Red.H_9.ethg$o[0].channel delay 1e-06s
attr unit s
par Red.H_9.ethg$o[0].channel datarate 4e+10bps
attr unit bps
par Red.H_9.ethg$o[0].channel ber 0
par Red.H_9.ethg$o[0].channel per 0
par Red.SW_2_1.ethg$o[1].channel typename "\"red16hostudp.simulations.Red.cable\""
par Red.SW_2_1.ethg$o[1].channel disabled false
par Red.SW_2_1.ethg$o[1].channel delay 1e-06s
attr unit s
par Red.SW_2_1.ethg$o[1].channel datarate 4e+10bps
attr unit bps
par Red.SW_2_1.ethg$o[1].channel ber 0
par Red.SW_2_1.ethg$o[1].channel per 0
par Red.H_10.ethg$o[0].channel typename "\"red16hostudp.simulations.Red.cable\""
par Red.H_10.ethg$o[0].channel disabled false
par Red.H_10.ethg$o[0].channel delay 1e-06s
attr unit s
par Red.H_10.ethg$o[0].channel datarate 4e+10bps
attr unit bps
par Red.H_10.ethg$o[0].channel ber 0
par Red.H_10.ethg$o[0].channel per 0
par Red.SW_2_1.ethg$o[2].channel typename "\"red16hostudp.simulations.Red.cable\""
par Red.SW_2_1.ethg$o[2].channel disabled false
par Red.SW_2_1.ethg$o[2].channel delay 1e-06s
attr unit s
par Red.SW_2_1.ethg$o[2].channel datarate 4e+10bps
attr unit bps
par Red.SW_2_1.ethg$o[2].channel ber 0
par Red.SW_2_1.ethg$o[2].channel per 0
par Red.H_11.ethg$o[0].channel typename "\"red16hostudp.simulations.Red.cable\""
par Red.H_11.ethg$o[0].channel disabled false
par Red.H_11.ethg$o[0].channel delay 1e-06s
attr unit s
par Red.H_11.ethg$o[0].channel datarate 4e+10bps
attr unit bps
par Red.H_11.ethg$o[0].channel ber 0
par Red.H_11.ethg$o[0].channel per 0
par Red.SW_2_1.ethg$o[3].channel typename "\"red16hostudp.simulations.Red.cable\""
par Red.SW_2_1.ethg$o[3].channel disabled false
par Red.SW_2_1.ethg$o[3].channel delay 1e-06s
attr unit s
par Red.SW_2_1.ethg$o[3].channel datarate 4e+10bps
attr unit bps
par Red.SW_2_1.ethg$o[3].channel ber 0
par Red.SW_2_1.ethg$o[3].channel per 0
par Red.H_12.ethg$o[0].channel typename "\"red16hostudp.simulations.Red.cable\""
par Red.H_12.ethg$o[0].channel disabled false
par Red.H_12.ethg$o[0].channel delay 1e-06s
attr unit s
par Red.H_12.ethg$o[0].channel datarate 4e+10bps
attr unit bps
par Red.H_12.ethg$o[0].channel ber 0
par Red.H_12.ethg$o[0].channel per 0
par Red.SW_2_2.ethg$o[0].channel typename "\"red16hostudp.simulations.Red.cable\""
par Red.SW_2_2.ethg$o[0].channel disabled false
par Red.SW_2_2.ethg$o[0].channel delay 1e-06s
attr unit s
par Red.SW_2_2.ethg$o[0].channel datarate 4e+10bps
attr unit bps
par Red.SW_2_2.ethg$o[0].channel ber 0
par Red.SW_2_2.ethg$o[0].channel per 0
par Red.H_13.ethg$o[0].channel typename "\"red16hostudp.simulations.Red.cable\""
par Red.H_13.ethg$o[0].channel disabled false
par Red.H_13.ethg$o[0].channel delay 1e-06s
attr unit s
par Red.H_13.ethg$o[0].channel datarate 4e+10bps
attr unit bps
par Red.H_13.ethg$o[0].channel ber 0
par Red.H_13.ethg$o[0].channel per 0
par Red.SW_2_2.ethg$o[1].channel typename "\"red16hostudp.simulations.Red.cable\""
par Red.SW_2_2.ethg$o[1].channel disabled false
par Red.SW_2_2.ethg$o[1].channel delay 1e-06s
attr unit s
par Red.SW_2_2.ethg$o[1].channel datarate 4e+10bps
attr unit bps
par Red.SW_2_2.ethg$o[1].channel ber 0
par Red.SW_2_2.ethg$o[1].channel per 0
par Red.H_14.ethg$o[0].channel typename "\"red16hostudp.simulations.Red.cable\""
par Red.H_14.ethg$o[0].channel disabled false
par Red.H_14.ethg$o[0].channel delay 1e-06s
attr unit s
par Red.H_14.ethg$o[0].channel datarate 4e+10bps
attr unit bps
par Red.H_14.ethg$o[0].channel ber 0
par Red.H_14.ethg$o[0].channel per 0
par Red.SW_2_2.ethg$o[2].channel typename "\"red16hostudp.simulations.Red.cable\""
par Red.SW_2_2.ethg$o[2].channel disabled false
par Red.SW_2_2.ethg$o[2].channel delay 1e-06s
attr unit s
par Red.SW_2_2.ethg$o[2].channel datarate 4e+10bps
attr unit bps
par Red.SW_2_2.ethg$o[2].channel ber 0
par Red.SW_2_2.ethg$o[2].channel per 0
par Red.H_15.ethg$o[0].channel typename "\"red16hostudp.simulations.Red.cable\""
par Red.H_15.ethg$o[0].channel disabled false
par Red.H_15.ethg$o[0].channel delay 1e-06s
attr unit s
par Red.H_15.ethg$o[0].channel datarate 4e+10bps
attr unit bps
par Red.H_15.ethg$o[0].channel ber 0
par Red.H_15.ethg$o[0].channel per 0
par Red.SW_2_2.ethg$o[3].channel typename "\"red16hostudp.simulations.Red.cable\""
par Red.SW_2_2.ethg$o[3].channel disabled false
par Red.SW_2_2.ethg$o[3].channel delay 1e-06s
attr unit s
par Red.SW_2_2.ethg$o[3].channel datarate 4e+10bps
attr unit bps
par Red.SW_2_2.ethg$o[3].channel ber 0
par Red.SW_2_2.ethg$o[3].channel per 0
par Red.SW_3_1.ethg$o[0].channel typename "\"red16hostudp.simulations.Red.cable\""
par Red.SW_3_1.ethg$o[0].channel disabled false
par Red.SW_3_1.ethg$o[0].channel delay 1e-06s
attr unit s
par Red.SW_3_1.ethg$o[0].channel datarate 4e+10bps
attr unit bps
par Red.SW_3_1.ethg$o[0].channel ber 0
par Red.SW_3_1.ethg$o[0].channel per 0
par Red.SW_1_1.ethg$o[4].channel typename "\"red16hostudp.simulations.Red.cable\""
par Red.SW_1_1.ethg$o[4].channel disabled false
par Red.SW_1_1.ethg$o[4].channel delay 1e-06s
attr unit s
par Red.SW_1_1.ethg$o[4].channel datarate 4e+10bps
attr unit bps
par Red.SW_1_1.ethg$o[4].channel ber 0
par Red.SW_1_1.ethg$o[4].channel per 0
par Red.SW_3_1.ethg$o[1].channel typename "\"red16hostudp.simulations.Red.cable\""
par Red.SW_3_1.ethg$o[1].channel disabled false
par Red.SW_3_1.ethg$o[1].channel delay 1e-06s
attr unit s
par Red.SW_3_1.ethg$o[1].channel datarate 4e+10bps
attr unit bps
par Red.SW_3_1.ethg$o[1].channel ber 0
par Red.SW_3_1.ethg$o[1].channel per 0
par Red.SW_1_2.ethg$o[4].channel typename "\"red16hostudp.simulations.Red.cable\""
par Red.SW_1_2.ethg$o[4].channel disabled false
par Red.SW_1_2.ethg$o[4].channel delay 1e-06s
attr unit s
par Red.SW_1_2.ethg$o[4].channel datarate 4e+10bps
attr unit bps
par Red.SW_1_2.ethg$o[4].channel ber 0
par Red.SW_1_2.ethg$o[4].channel per 0
par Red.SW_3_1.ethg$o[2].channel typename "\"red16hostudp.simulations.Red.cable\""
par Red.SW_3_1.ethg$o[2].channel disabled false
par Red.SW_3_1.ethg$o[2].channel delay 1e-06s
attr unit s
par Red.SW_3_1.ethg$o[2].channel datarate 4e+10bps
attr unit bps
par Red.SW_3_1.ethg$o[2].channel ber 0
par Red.SW_3_1.ethg$o[2].channel per 0
par Red.SW_2_1.ethg$o[4].channel typename "\"red16hostudp.simulations.Red.cable\""
par Red.SW_2_1.ethg$o[4].channel disabled false
par Red.SW_2_1.ethg$o[4].channel delay 1e-06s
attr unit s
par Red.SW_2_1.ethg$o[4].channel datarate 4e+10bps
attr unit bps
par Red.SW_2_1.ethg$o[4].channel ber 0
par Red.SW_2_1.ethg$o[4].channel per 0
par Red.SW_3_1.ethg$o[3].channel typename "\"red16hostudp.simulations.Red.cable\""
par Red.SW_3_1.ethg$o[3].channel disabled false
par Red.SW_3_1.ethg$o[3].channel delay 1e-06s
attr unit s
par Red.SW_3_1.ethg$o[3].channel datarate 4e+10bps
attr unit bps
par Red.SW_3_1.ethg$o[3].channel ber 0
par Red.SW_3_1.ethg$o[3].channel per 0
par Red.SW_2_2.ethg$o[4].channel typename "\"red16hostudp.simulations.Red.cable\""
par Red.SW_2_2.ethg$o[4].channel disabled false
par Red.SW_2_2.ethg$o[4].channel delay 1e-06s
attr unit s
par Red.SW_2_2.ethg$o[4].channel datarate 4e+10bps
attr unit bps
par Red.SW_2_2.ethg$o[4].channel ber 0
par Red.SW_2_2.ethg$o[4].channel per 0
par Red.SW_3_2.ethg$o[0].channel typename "\"red16hostudp.simulations.Red.cable\""
par Red.SW_3_2.ethg$o[0].channel disabled false
par Red.SW_3_2.ethg$o[0].channel delay 1e-06s
attr unit s
par Red.SW_3_2.ethg$o[0].channel datarate 4e+10bps
attr unit bps
par Red.SW_3_2.ethg$o[0].channel ber 0
par Red.SW_3_2.ethg$o[0].channel per 0
par Red.SW_1_1.ethg$o[5].channel typename "\"red16hostudp.simulations.Red.cable\""
par Red.SW_1_1.ethg$o[5].channel disabled false
par Red.SW_1_1.ethg$o[5].channel delay 1e-06s
attr unit s
par Red.SW_1_1.ethg$o[5].channel datarate 4e+10bps
attr unit bps
par Red.SW_1_1.ethg$o[5].channel ber 0
par Red.SW_1_1.ethg$o[5].channel per 0
par Red.SW_3_2.ethg$o[1].channel typename "\"red16hostudp.simulations.Red.cable\""
par Red.SW_3_2.ethg$o[1].channel disabled false
par Red.SW_3_2.ethg$o[1].channel delay 1e-06s
attr unit s
par Red.SW_3_2.ethg$o[1].channel datarate 4e+10bps
attr unit bps
par Red.SW_3_2.ethg$o[1].channel ber 0
par Red.SW_3_2.ethg$o[1].channel per 0
par Red.SW_1_2.ethg$o[5].channel typename "\"red16hostudp.simulations.Red.cable\""
par Red.SW_1_2.ethg$o[5].channel disabled false
par Red.SW_1_2.ethg$o[5].channel delay 1e-06s
attr unit s
par Red.SW_1_2.ethg$o[5].channel datarate 4e+10bps
attr unit bps
par Red.SW_1_2.ethg$o[5].channel ber 0
par Red.SW_1_2.ethg$o[5].channel per 0
par Red.SW_3_2.ethg$o[2].channel typename "\"red16hostudp.simulations.Red.cable\""
par Red.SW_3_2.ethg$o[2].channel disabled false
par Red.SW_3_2.ethg$o[2].channel delay 1e-06s
attr unit s
par Red.SW_3_2.ethg$o[2].channel datarate 4e+10bps
attr unit bps
par Red.SW_3_2.ethg$o[2].channel ber 0
par Red.SW_3_2.ethg$o[2].channel per 0
par Red.SW_2_1.ethg$o[5].channel typename "\"red16hostudp.simulations.Red.cable\""
par Red.SW_2_1.ethg$o[5].channel disabled false
par Red.SW_2_1.ethg$o[5].channel delay 1e-06s
attr unit s
par Red.SW_2_1.ethg$o[5].channel datarate 4e+10bps
attr unit bps
par Red.SW_2_1.ethg$o[5].channel ber 0
par Red.SW_2_1.ethg$o[5].channel per 0
par Red.SW_3_2.ethg$o[3].channel typename "\"red16hostudp.simulations.Red.cable\""
par Red.SW_3_2.ethg$o[3].channel disabled false
par Red.SW_3_2.ethg$o[3].channel delay 1e-06s
attr unit s
par Red.SW_3_2.ethg$o[3].channel datarate 4e+10bps
attr unit bps
par Red.SW_3_2.ethg$o[3].channel ber 0
par Red.SW_3_2.ethg$o[3].channel per 0
par Red.SW_2_2.ethg$o[5].channel typename "\"red16hostudp.simulations.Red.cable\""
par Red.SW_2_2.ethg$o[5].channel disabled false
par Red.SW_2_2.ethg$o[5].channel delay 1e-06s
attr unit s
par Red.SW_2_2.ethg$o[5].channel datarate 4e+10bps
attr unit bps
par Red.SW_2_2.ethg$o[5].channel ber 0
par Red.SW_2_2.ethg$o[5].channel per 0
par Red.configurator typename "\"inet.networklayer.configurator.ipv4.Ipv4NetworkConfigurator\""
par Red.configurator minLinkWeight 0.001
par Red.configurator configureIsolatedNetworksSeparatly false
par Red.configurator config "<config>...</config> at content:1"
par Red.configurator assignAddresses true
par Red.configurator assignUniqueAddresses true
par Red.configurator assignDisjunctSubnetAddresses true
par Red.configurator addStaticRoutes true
par Red.configurator addDefaultRoutes true
par Red.configurator addSubnetRoutes true
par Red.configurator addDirectRoutes true
par Red.configurator optimizeRoutes true
par Red.configurator dumpTopology false
par Red.configurator dumpLinks false
par Red.configurator dumpAddresses false
par Red.configurator dumpRoutes false
par Red.configurator dumpConfig "\"\""
par Red.H_0.ethg$i[0].channel typename "\"ned.IdealChannel\""
par Red.H_0.eth[0].phys$o.channel typename "\"ned.IdealChannel\""
par Red.H_0.interfaceTable typename "\"inet.networklayer.common.InterfaceTable\""
par Red.H_0.interfaceTable displayAddresses false
par Red.H_0.li typename "\"inet.common.MessageDispatcher\""
par Red.H_0.li displayStringTextFormat "\"processed %p pk (%l)\""
par Red.H_0.lo[0].upperLayerIn.channel typename "\"ned.IdealChannel\""
par Red.H_0.lo[0].lo.upperLayerOut.channel typename "\"ned.IdealChannel\""
par Red.H_0.lo[0].lo typename "\"inet.linklayer.loopback.Loopback\""
par Red.H_0.lo[0].lo interfaceTableModule "\"Red.H_0.interfaceTable\""
par Red.H_0.lo[0].lo mtu 4470B
attr unit B
scalar Red.H_0.lo[0].lo rcvdPkFromHl:count 0
attr interpolationmode none
attr source packetReceivedFromUpper
attr title "packets received from higher layer, count"
scalar Red.H_0.lo[0].lo rcvdPkFromHl:sum(packetBytes) 0
attr interpolationmode none
attr source packetReceivedFromUpper
attr title "packets received from higher layer, sum(packetBytes)"
scalar Red.H_0.lo[0].lo passedUpPk:count 0
attr interpolationmode none
attr source packetSentToUpper
attr title "packets passed to higher layer, count"
scalar Red.H_0.lo[0].lo passedUpPk:sum(packetBytes) 0
attr interpolationmode none
attr source packetSentToUpper
attr title "packets passed to higher layer, sum(packetBytes)"
par Red.H_0.lo[0] typename "\"inet.linklayer.loopback.LoopbackInterface\""
par Red.H_0.lo[0] displayStringTextFormat "\"%a (%i)\\n%m\""
par Red.H_0.lo[0] recordPcap false
par Red.H_0.lo[0] numPcapRecorders 0
par Red.H_0.lo[0] interfaceTableModule "\"Red.H_0.interfaceTable\""
par Red.H_0.eth[0].mac.phys$o.channel typename "\"ned.IdealChannel\""
par Red.H_0.eth[0].phys$i.channel typename "\"ned.IdealChannel\""
par Red.H_0.eth[0].encap.upperLayerOut.channel typename "\"ned.IdealChannel\""
par Red.H_0.eth[0].upperLayerIn.channel typename "\"ned.IdealChannel\""
par Red.H_0.eth[0].encap typename "\"inet.linklayer.ethernet.basic.EthernetEncapsulation\""
par Red.H_0.eth[0].encap interfaceTableModule "\"Red.H_0.interfaceTable\""
par Red.H_0.eth[0].encap useSNAP false
par Red.H_0.eth[0].encap fcsMode "\"declared\""
attr enum declared,computed
par Red.H_0.eth[0].encap registerProtocol false
par Red.H_0.eth[0].encap stopOperationExtraTime -1s
attr unit s
par Red.H_0.eth[0].encap stopOperationTimeout 2s
attr unit s
scalar Red.H_0.eth[0].encap pauseSent:count 0
attr title "pause sent, count"
scalar Red.H_0.eth[0].encap pauseSent:sum 0
attr title "pause sent, sum"
scalar Red.H_0.eth[0].encap decapPk:count 1
attr interpolationmode none
attr source decapPk
attr title "packets decapsulated, count"
scalar Red.H_0.eth[0].encap decapPk:sum(packetBytes) 46
attr interpolationmode none
attr source decapPk
attr title "packets decapsulated, sum(packetBytes)"
scalar Red.H_0.eth[0].encap encapPk:count 1
attr interpolationmode none
attr source encapPk
attr title "packets encapsulated, count"
scalar Red.H_0.eth[0].encap encapPk:sum(packetBytes) 28
attr interpolationmode none
attr source encapPk
attr title "packets encapsulated, sum(packetBytes)"
par Red.H_0.eth[0].mac.queue typename "\"inet.linklayer.ethernet.common.EthernetQueue\""
par Red.H_0.eth[0].mac.queue displayStringTextFormat "\"contains %p pk (%l) pushed %u\\npulled %o removed %r dropped %d\""
par Red.H_0.eth[0].mac.queue packetCapacity 10000
par Red.H_0.eth[0].mac.queue dataCapacity -1b
attr unit b
par Red.H_0.eth[0].mac.queue dropperClass "\"inet::queueing::PacketAtCollectionEndDropper\""
par Red.H_0.eth[0].mac.queue comparatorClass "\"inet::EthernetFrameTypeComparator\""
par Red.H_0.eth[0].mac.queue bufferModule "\"\""
scalar Red.H_0.eth[0].mac.queue packetPulled:count 1
attr interpolationmode none
attr title "packet pulled, count"
scalar Red.H_0.eth[0].mac.queue packetPulled:sum(packetBytes) 46
attr interpolationmode none
attr title "packet pulled, sum(packetBytes)"
statistic Red.H_0.eth[0].mac.queue queueingTime:histogram
field count 1
field mean 0
field stddev -nan
field min 0
field max 0
field sum 0
field sqrsum 0
attr interpolationmode none
attr source queueingTime(packetPulled)
attr title "queueing times, histogram"
attr unit s
bin	-inf	0
bin	-0.5	0
bin	-0.48	0
bin	-0.46	0
bin	-0.44	0
bin	-0.42	0
bin	-0.4	0
bin	-0.38	0
bin	-0.36	0
bin	-0.34	0
bin	-0.32	0
bin	-0.3	0
bin	-0.28	0
bin	-0.26	0
bin	-0.24	0
bin	-0.22	0
bin	-0.2	0
bin	-0.18	0
bin	-0.16	0
bin	-0.14	0
bin	-0.12	0
bin	-0.1	0
bin	-0.08	0
bin	-0.06	0
bin	-0.04	0
bin	-0.02	0
bin	0	1
bin	0.02	0
bin	0.04	0
bin	0.06	0
bin	0.08	0
bin	0.1	0
bin	0.12	0
bin	0.14	0
bin	0.16	0
bin	0.18	0
bin	0.2	0
bin	0.22	0
bin	0.24	0
bin	0.26	0
bin	0.28	0
bin	0.3	0
bin	0.32	0
bin	0.34	0
bin	0.36	0
bin	0.38	0
bin	0.4	0
bin	0.42	0
bin	0.44	0
bin	0.46	0
bin	0.48	0
bin	0.5	0
scalar Red.H_0.eth[0].mac.queue queueLength:max 1
attr autoWarmupFilter false
attr interpolationmode sample-hold
attr source "warmup(count(packetPushed) - count(packetPulled) - count(packetRemoved) - count(packetDropped))"
attr title "queue length, max"
attr type int
scalar Red.H_0.eth[0].mac.queue queueLength:timeavg 0
attr autoWarmupFilter false
attr interpolationmode sample-hold
attr source "warmup(count(packetPushed) - count(packetPulled) - count(packetRemoved) - count(packetDropped))"
attr title "queue length, timeavg"
attr type int
scalar Red.H_0.eth[0].mac.queue packetPushed:count 1
attr interpolationmode none
attr title "packet pushed, count"
scalar Red.H_0.eth[0].mac.queue packetPushed:sum(packetBytes) 46
attr interpolationmode none
attr title "packet pushed, sum(packetBytes)"
scalar Red.H_0.eth[0].mac.queue packetDropQueueOverflow:count 0
attr interpolationmode none
attr source packetDropReasonIsQueueOverflow(packetDropped)
attr title "packet drops: queue overflow, count"
scalar Red.H_0.eth[0].mac.queue packetDropQueueOverflow:sum(packetBytes) 0
attr interpolationmode none
attr source packetDropReasonIsQueueOverflow(packetDropped)
attr title "packet drops: queue overflow, sum(packetBytes)"
scalar Red.H_0.eth[0].mac.queue packetRemoved:count 0
attr interpolationmode none
attr title "packets removed, count"
scalar Red.H_0.eth[0].mac.queue packetRemoved:sum(packetBytes) 0
attr interpolationmode none
attr title "packets removed, sum(packetBytes)"
par Red.H_0.eth[0].mac typename "\"inet.linklayer.ethernet.basic.EthernetMac\""
par Red.H_0.eth[0].mac interfaceTableModule "\"Red.H_0.interfaceTable\""
par Red.H_0.eth[0].mac displayStringTextFormat "\"rate: %b\\nsent: %s, rcvd: %r\\nqueue: %q, drop: %d\""
par Red.H_0.eth[0].mac sendRawBytes false
par Red.H_0.eth[0].mac promiscuous false
par Red.H_0.eth[0].mac duplexMode true
par Red.H_0.eth[0].mac mtu 1500B
attr unit B
par Red.H_0.eth[0].mac stopOperationExtraTime -1s
attr unit s
par Red.H_0.eth[0].mac stopOperationTimeout 2s
attr unit s
scalar Red.H_0.eth[0].mac "simulated time" 0.001003390753
scalar Red.H_0.eth[0].mac full-duplex 1
scalar Red.H_0.eth[0].mac "frames/sec sent" 996.62070535346
scalar Red.H_0.eth[0].mac "frames/sec rcvd" 996.62070535346
scalar Red.H_0.eth[0].mac "bits/sec sent" 510269.80114097
scalar Red.H_0.eth[0].mac "bits/sec rcvd" 510269.80114097
scalar Red.H_0.eth[0].mac "rx channel idle (%)" 99.998564866184
scalar Red.H_0.eth[0].mac "rx channel utilization (%)" 0.001435133815709
scalar Red.H_0.eth[0].mac rxPausePkUnits:count 0
attr interpolationmode none
attr title "pause units received, count"
scalar Red.H_0.eth[0].mac rxPausePkUnits:sum 0
attr interpolationmode none
attr title "pause units received, sum"
scalar Red.H_0.eth[0].mac txPausePkUnits:count 0
attr interpolationmode none
attr title "pause units sent, count"
scalar Red.H_0.eth[0].mac txPausePkUnits:sum 0
attr interpolationmode none
attr title "pause units sent, sum"
scalar Red.H_0.eth[0].mac rxPkOk:count 1
attr interpolationmode none
attr source rxPkOk
attr title "packets received OK, count"
scalar Red.H_0.eth[0].mac rxPkOk:sum(packetBytes) 64
attr interpolationmode none
attr source rxPkOk
attr title "packets received OK, sum(packetBytes)"
scalar Red.H_0.eth[0].mac txPk:count 1
attr interpolationmode none
attr source packetSentToLower
attr title "packets transmitted, count"
scalar Red.H_0.eth[0].mac txPk:sum(packetBytes) 64
attr interpolationmode none
attr source packetSentToLower
attr title "packets transmitted, sum(packetBytes)"
scalar Red.H_0.eth[0].mac packetReceivedFromUpper:count 1
attr interpolationmode none
attr source packetReceivedFromUpper
attr title "packet bytes from higher layer, count"
scalar Red.H_0.eth[0].mac packetReceivedFromUpper:sum(packetBytes) 46
attr interpolationmode none
attr source packetReceivedFromUpper
attr title "packet bytes from higher layer, sum(packetBytes)"
scalar Red.H_0.eth[0].mac passedUpPk:count 1
attr interpolationmode none
attr source packetSentToUpper
attr title "packets passed to higher layer, count"
scalar Red.H_0.eth[0].mac passedUpPk:sum(packetBytes) 64
attr interpolationmode none
attr source packetSentToUpper
attr title "packets passed to higher layer, sum(packetBytes)"
scalar Red.H_0.eth[0].mac packetDropIncorrectlyReceived:count 0
attr interpolationmode none
attr source packetDropReasonIsIncorrectlyReceived(packetDropped)
attr title "packet drop: incorrectly received, count"
scalar Red.H_0.eth[0].mac packetDropIncorrectlyReceived:sum(packetBytes) 0
attr interpolationmode none
attr source packetDropReasonIsIncorrectlyReceived(packetDropped)
attr title "packet drop: incorrectly received, sum(packetBytes)"
scalar Red.H_0.eth[0].mac packetDropInterfaceDown:count 0
attr interpolationmode none
attr source packetDropReasonIsInterfaceDown(packetDropped)
attr title "packet drop: interface down, count"
scalar Red.H_0.eth[0].mac packetDropInterfaceDown:sum(packetBytes) 0
attr interpolationmode none
attr source packetDropReasonIsInterfaceDown(packetDropped)
attr title "packet drop: interface down, sum(packetBytes)"
scalar Red.H_0.eth[0].mac packetDropNotAddressedToUs:count 0
attr interpolationmode none
attr source packetDropReasonIsNotAddressedToUs(packetDropped)
attr title "packet drop: not addressed to us, count"
scalar Red.H_0.eth[0].mac packetDropNotAddressedToUs:sum(packetBytes) 0
attr interpolationmode none
attr source packetDropReasonIsNotAddressedToUs(packetDropped)
attr title "packet drop: not addressed to us, sum(packetBytes)"
par Red.H_0.eth[0] typename "\"inet.linklayer.ethernet.EthernetInterface\""
par Red.H_0.eth[0] displayStringTextFormat "\"%a (%i)\\n%m\""
par Red.H_0.eth[0] recordPcap false
par Red.H_0.eth[0] numPcapRecorders 0
par Red.H_0.eth[0] interfaceTableModule "\"Red.H_0.interfaceTable\""
par Red.H_0.eth[0] address "\"0A-AA-00-00-00-01\""
par Red.H_0.eth[0] duplexMode true
par Red.H_0.eth[0] csmacdSupport false
par Red.H_0.eth[0] bitrate 0bps
attr unit bps
par Red.H_0.eth[0] fcsMode "\"declared\""
attr enum declared,computed
par Red.H_0.ipv4.transportIn.channel typename "\"ned.IdealChannel\""
par Red.H_0.ipv4.up.out[0].channel typename "\"ned.IdealChannel\""
par Red.H_0.ipv4.lp.out[2].channel typename "\"ned.IdealChannel\""
par Red.H_0.ipv4.ifIn.channel typename "\"ned.IdealChannel\""
par Red.H_0.ipv4.configurator typename "\"inet.networklayer.configurator.ipv4.Ipv4NodeConfigurator\""
par Red.H_0.ipv4.configurator interfaceTableModule "\"Red.H_0.interfaceTable\""
par Red.H_0.ipv4.configurator routingTableModule "\"Red.H_0.ipv4.routingTable\""
par Red.H_0.ipv4.configurator networkConfiguratorModule "\"configurator\""
par Red.H_0.ipv4.configurator configureRoutingTable true
par Red.H_0.ipv4.routingTable typename "\"inet.networklayer.ipv4.Ipv4RoutingTable\""
par Red.H_0.ipv4.routingTable interfaceTableModule "\"Red.H_0.interfaceTable\""
par Red.H_0.ipv4.routingTable routerId "\"auto\""
par Red.H_0.ipv4.routingTable netmaskRoutes "\"*\""
par Red.H_0.ipv4.routingTable forwarding false
par Red.H_0.ipv4.routingTable multicastForwarding false
par Red.H_0.ipv4.routingTable useAdminDist false
par Red.H_0.ipv4.routingTable routingFile "\"\""
par Red.H_0.ipv4.natTable typename "\"inet.networklayer.ipv4.Ipv4NatTable\""
par Red.H_0.ipv4.natTable networkProtocolModule "\"^.ip\""
par Red.H_0.ipv4.natTable config "<config/> at content:1"
par Red.H_0.ipv4.up typename "\"inet.common.MessageDispatcher\""
par Red.H_0.ipv4.up displayStringTextFormat "\"processed %p pk (%l)\""
par Red.H_0.ipv4.igmp typename "\"inet.networklayer.ipv4.Igmpv2\""
par Red.H_0.ipv4.igmp interfaceTableModule "\"Red.H_0.interfaceTable\""
par Red.H_0.ipv4.igmp routingTableModule "\"Red.H_0.ipv4.routingTable\""
par Red.H_0.ipv4.igmp crcMode "\"declared\""
attr enum declared,computed
par Red.H_0.ipv4.igmp enabled true
par Red.H_0.ipv4.igmp robustnessVariable 2
par Red.H_0.ipv4.igmp queryInterval 125s
attr unit s
par Red.H_0.ipv4.igmp queryResponseInterval 10s
attr unit s
par Red.H_0.ipv4.igmp groupMembershipInterval 260s
attr unit s
par Red.H_0.ipv4.igmp otherQuerierPresentInterval 255s
attr unit s
par Red.H_0.ipv4.igmp startupQueryInterval 31.25s
attr unit s
par Red.H_0.ipv4.igmp startupQueryCount 2
par Red.H_0.ipv4.igmp lastMemberQueryInterval 1s
attr unit s
par Red.H_0.ipv4.igmp lastMemberQueryCount 2
par Red.H_0.ipv4.igmp unsolicitedReportInterval 10s
attr unit s
par Red.H_0.ipv4.icmp typename "\"inet.networklayer.ipv4.Icmp\""
par Red.H_0.ipv4.icmp interfaceTableModule "\"Red.H_0.interfaceTable\""
par Red.H_0.ipv4.icmp routingTableModule "\"Red.H_0.ipv4.routingTable\""
par Red.H_0.ipv4.icmp crcMode "\"declared\""
attr enum declared,computed
par Red.H_0.ipv4.icmp quoteLength 8B
attr unit B
par Red.H_0.ipv4.mp typename "\"inet.common.MessageDispatcher\""
par Red.H_0.ipv4.mp displayStringTextFormat "\"processed %p pk (%l)\""
par Red.H_0.ipv4.ip typename "\"inet.networklayer.ipv4.Ipv4\""
par Red.H_0.ipv4.ip interfaceTableModule "\"Red.H_0.interfaceTable\""
par Red.H_0.ipv4.ip routingTableModule "\"Red.H_0.ipv4.routingTable\""
par Red.H_0.ipv4.ip arpModule "\"Red.H_0.ipv4.arp\""
par Red.H_0.ipv4.ip icmpModule "\"Red.H_0.ipv4.icmp\""
par Red.H_0.ipv4.ip crcMode "\"declared\""
attr enum declared,computed
par Red.H_0.ipv4.ip timeToLive 32
par Red.H_0.ipv4.ip multicastTimeToLive 32
par Red.H_0.ipv4.ip fragmentTimeout 60s
attr unit s
par Red.H_0.ipv4.ip limitedBroadcast false
par Red.H_0.ipv4.ip directBroadcastInterfaces "\"\""
scalar Red.H_0.ipv4.ip packetDropAddressResolutionFailed:count 0
attr interpolationmode none
attr source packetDropReasonIsAddressResolutionFailed(packetDropped)
attr title "packet drop: address resolution failed, count"
scalar Red.H_0.ipv4.ip packetDropAddressResolutionFailed:sum(packetBytes) 0
attr interpolationmode none
attr source packetDropReasonIsAddressResolutionFailed(packetDropped)
attr title "packet drop: address resolution failed, sum(packetBytes)"
scalar Red.H_0.ipv4.ip packetDropHopLimitReached:count 0
attr interpolationmode none
attr source packetDropReasonIsHopLimitReached(packetDropped)
attr title "packet drop: hop limit reached, count"
scalar Red.H_0.ipv4.ip packetDropHopLimitReached:sum(packetBytes) 0
attr interpolationmode none
attr source packetDropReasonIsHopLimitReached(packetDropped)
attr title "packet drop: hop limit reached, sum(packetBytes)"
scalar Red.H_0.ipv4.ip packetDropForwardingDisabled:count 0
attr interpolationmode none
attr source packetDropReasonIsForwardingDisabled(packetDropped)
attr title "packet drop: forwarding disabled, count"
scalar Red.H_0.ipv4.ip packetDropForwardingDisabled:sum(packetBytes) 0
attr interpolationmode none
attr source packetDropReasonIsForwardingDisabled(packetDropped)
attr title "packet drop: forwarding disabled, sum(packetBytes)"
scalar Red.H_0.ipv4.ip packetDropNoInterfaceFound:count 0
attr interpolationmode none
attr source packetDropReasonIsNoInterfaceFound(packetDropped)
attr title "packet drop: no interface found, count"
scalar Red.H_0.ipv4.ip packetDropNoInterfaceFound:sum(packetBytes) 0
attr interpolationmode none
attr source packetDropReasonIsNoInterfaceFound(packetDropped)
attr title "packet drop: no interface found, sum(packetBytes)"
scalar Red.H_0.ipv4.ip packetDropNoRouteFound:count 0
attr interpolationmode none
attr source packetDropReasonIsNoRouteFound(packetDropped)
attr title "packet drop: no route found, count"
scalar Red.H_0.ipv4.ip packetDropNoRouteFound:sum(packetBytes) 0
attr interpolationmode none
attr source packetDropReasonIsNoRouteFound(packetDropped)
attr title "packet drop: no route found, sum(packetBytes)"
scalar Red.H_0.ipv4.ip packetDropUndefined:count 0
attr interpolationmode none
attr source packetDropReasonIsUndefined(packetDropped)
attr title "packet drop: undefined, count"
scalar Red.H_0.ipv4.ip packetDropUndefined:sum(packetBytes) 0
attr interpolationmode none
attr source packetDropReasonIsUndefined(packetDropped)
attr title "packet drop: undefined, sum(packetBytes)"
par Red.H_0.ipv4.arp typename "\"inet.networklayer.arp.ipv4.Arp\""
par Red.H_0.ipv4.arp interfaceTableModule "\"Red.H_0.interfaceTable\""
par Red.H_0.ipv4.arp routingTableModule "\"Red.H_0.ipv4.routingTable\""
par Red.H_0.ipv4.arp retryTimeout 1s
attr unit s
par Red.H_0.ipv4.arp retryCount 3
par Red.H_0.ipv4.arp cacheTimeout 120s
attr unit s
par Red.H_0.ipv4.arp proxyArpInterfaces "\"\""
scalar Red.H_0.ipv4.arp arpResolutionFailed:count 0
attr title "ARP failed resolutions, count"
scalar Red.H_0.ipv4.arp arpResolutionCompleted:count 0
attr title "ARP completed resolutions, count"
scalar Red.H_0.ipv4.arp arpResolutionInitiated:count 1
attr title "ARP initiated resolutions, count"
scalar Red.H_0.ipv4.arp arpReplySent:count 0
attr source arpReplySent
attr title "ARP replies sent, count"
scalar Red.H_0.ipv4.arp arpReplySent:sum(packetBytes) 0
attr source arpReplySent
attr title "ARP replies sent, sum(packetBytes)"
scalar Red.H_0.ipv4.arp arpRequestSent:count 1
attr source arpRequestSent
attr title "ARP request sent, count"
scalar Red.H_0.ipv4.arp arpRequestSent:sum(packetBytes) 28
attr source arpRequestSent
attr title "ARP request sent, sum(packetBytes)"
par Red.H_0.ipv4.lp typename "\"inet.common.MessageDispatcher\""
par Red.H_0.ipv4.lp displayStringTextFormat "\"processed %p pk (%l)\""
par Red.H_0.ipv4 typename "\"inet.networklayer.ipv4.Ipv4NetworkLayer\""
par Red.H_0.ipv4 forwarding false
par Red.H_0.ipv4 multicastForwarding false
par Red.H_0.ipv4 interfaceTableModule "\"Red.H_0.interfaceTable\""
par Red.H_0.ipv4 displayStringTextFormat "\"%i\""
par Red.H_0.nl typename "\"inet.common.MessageDispatcher\""
par Red.H_0.nl displayStringTextFormat "\"processed %p pk (%l)\""
par Red.H_0.udp typename "\"inet.transportlayer.udp.Udp\""
par Red.H_0.udp interfaceTableModule "\"Red.H_0.interfaceTable\""
par Red.H_0.udp icmpModule "\"^.ipv4.icmp\""
par Red.H_0.udp icmpv6Module "\"^.ipv6.icmpv6\""
par Red.H_0.udp crcMode "\"declared\""
attr enum disabled,declared,computed
scalar Red.H_0.udp packetReceived:count 0
attr interpolationmode none
attr source packetReceived
attr title "packets received, count"
scalar Red.H_0.udp packetReceived:sum(packetBytes) 0
attr interpolationmode none
attr source packetReceived
attr title "packets received, sum(packetBytes)"
scalar Red.H_0.udp packetSent:count 1
attr interpolationmode none
attr source packetSent
attr title "packets sent, count"
scalar Red.H_0.udp packetSent:sum(packetBytes) 1008
attr interpolationmode none
attr source packetSent
attr title "packets sent, sum(packetBytes)"
scalar Red.H_0.udp passedUpPk:count 0
attr interpolationmode none
attr source packetSentToUpper
attr title "packets passed up, count"
scalar Red.H_0.udp droppedPkWrongPort:count 0
attr interpolationmode none
attr source packetDropReasonIsNoPortFound(packetDropped)
attr title "packets dropped (wrong port), count"
scalar Red.H_0.udp droppedPkBadChecksum:count 0
attr interpolationmode none
attr source packetDropReasonIsIncorrectlyReceived(packetDropped)
attr title "packets dropped (checksum error), count"
par Red.H_0.tcp typename "\"inet.transportlayer.tcp.Tcp\""
par Red.H_0.tcp crcMode "\"declared\""
attr enum declared,computed
par Red.H_0.tcp advertisedWindow 7504
par Red.H_0.tcp delayedAcksEnabled false
par Red.H_0.tcp nagleEnabled true
par Red.H_0.tcp limitedTransmitEnabled false
par Red.H_0.tcp increasedIWEnabled false
par Red.H_0.tcp sackSupport false
par Red.H_0.tcp windowScalingSupport false
par Red.H_0.tcp windowScalingFactor -1
par Red.H_0.tcp timestampSupport false
par Red.H_0.tcp mss 536
par Red.H_0.tcp msl 120s
attr unit s
par Red.H_0.tcp tcpAlgorithmClass "\"TcpReno\""
attr enum TcpVegas,TcpWestwood,TcpNewReno,TcpReno,TcpTahoe,TcpNoCongestionControl
par Red.H_0.tcp useDataNotification false
par Red.H_0.tcp dupthresh 3
par Red.H_0.tcp initialSsthresh 4294967295
par Red.H_0.tcp stopOperationExtraTime 0s
attr unit s
par Red.H_0.tcp stopOperationTimeout 2s
attr unit s
par Red.H_0.tcp ecnWillingness false
par Red.H_0.tcp dctcpGamma 0.0625
par Red.H_0.tn typename "\"inet.common.MessageDispatcher\""
par Red.H_0.tn displayStringTextFormat "\"processed %p pk (%l)\""
par Red.H_0.app[0] typename "\"inet.applications.udpapp.UdpBasicApp\""
par Red.H_0.app[0] interfaceTableModule "\"Red.H_0.interfaceTable\""
par Red.H_0.app[0] clockModule "\"\""
par Red.H_0.app[0] localPort 1000
par Red.H_0.app[0] destAddresses "\"H_3\""
par Red.H_0.app[0] localAddress "\"\""
par Red.H_0.app[0] packetName "\"UdpBasicAppData\""
par Red.H_0.app[0] destPort 1000
par Red.H_0.app[0] messageLength 1000B
attr unit B
par Red.H_0.app[0] startTime 0.001s
attr unit s
par Red.H_0.app[0] stopTime -1s
attr unit s
par Red.H_0.app[0] sendInterval 0.001s
attr unit s
par Red.H_0.app[0] timeToLive -1
par Red.H_0.app[0] dontFragment false
par Red.H_0.app[0] dscp -1
par Red.H_0.app[0] tos -1
par Red.H_0.app[0] multicastInterface "\"\""
par Red.H_0.app[0] receiveBroadcast false
par Red.H_0.app[0] joinLocalMulticastGroups false
par Red.H_0.app[0] stopOperationExtraTime -1s
attr unit s
par Red.H_0.app[0] stopOperationTimeout 2s
attr unit s
scalar Red.H_0.app[0] "packets sent" 1
scalar Red.H_0.app[0] "packets received" 0
scalar Red.H_0.app[0] packetReceived:count 0
attr interpolationmode none
attr source packetReceived
attr title "packets received, count"
scalar Red.H_0.app[0] packetReceived:sum(packetBytes) 0
attr interpolationmode none
attr source packetReceived
attr title "packets received, sum(packetBytes)"
statistic Red.H_0.app[0] rcvdPkLifetime:stats
field count 0
field mean -nan
field stddev -nan
field min -nan
field max -nan
field sum 0
field sqrsum 0
attr interpolationmode none
attr source dataAge(packetReceived)
attr title "received packet lifetime, stats"
attr unit s
scalar Red.H_0.app[0] packetSent:count 1
attr interpolationmode none
attr source packetSent
attr title "packets sent, count"
scalar Red.H_0.app[0] packetSent:sum(packetBytes) 1000
attr interpolationmode none
attr source packetSent
attr title "packets sent, sum(packetBytes)"
par Red.H_0.at typename "\"inet.common.MessageDispatcher\""
par Red.H_0.at displayStringTextFormat "\"processed %p pk (%l)\""
par Red.H_0 typename "\"inet.node.inet.StandardHost\""
par Red.H_0 hasStatus false
par Red.H_0 osgModel "\"\""
par Red.H_0 osgModelColor "\"\""
par Red.H_0 canvasImage "\"\""
par Red.H_0 canvasImageColor "\"\""
par Red.H_0 recordPcap false
par Red.H_0 numPcapRecorders 0
par Red.H_0 numLoInterfaces 1
par Red.H_0 numWlanInterfaces 0
par Red.H_0 numEthInterfaces 0
par Red.H_0 numPppInterfaces 0
par Red.H_0 numTunInterfaces 0
par Red.H_0 numVirtInterfaces 0
par Red.H_0 hasIpv4 true
par Red.H_0 hasIpv6 false
par Red.H_0 hasGn false
par Red.H_0 forwarding false
par Red.H_0 multicastForwarding false
par Red.H_0 hasUdp true
par Red.H_0 hasTcp true
par Red.H_0 hasSctp false
par Red.H_0 numApps 1
par Red.H_1.ethg$i[0].channel typename "\"ned.IdealChannel\""
par Red.H_1.eth[0].phys$o.channel typename "\"ned.IdealChannel\""
par Red.H_1.interfaceTable typename "\"inet.networklayer.common.InterfaceTable\""
par Red.H_1.interfaceTable displayAddresses false
par Red.H_1.li typename "\"inet.common.MessageDispatcher\""
par Red.H_1.li displayStringTextFormat "\"processed %p pk (%l)\""
par Red.H_1.lo[0].upperLayerIn.channel typename "\"ned.IdealChannel\""
par Red.H_1.lo[0].lo.upperLayerOut.channel typename "\"ned.IdealChannel\""
par Red.H_1.lo[0].lo typename "\"inet.linklayer.loopback.Loopback\""
par Red.H_1.lo[0].lo interfaceTableModule "\"Red.H_1.interfaceTable\""
par Red.H_1.lo[0].lo mtu 4470B
attr unit B
scalar Red.H_1.lo[0].lo rcvdPkFromHl:count 0
attr interpolationmode none
attr source packetReceivedFromUpper
attr title "packets received from higher layer, count"
scalar Red.H_1.lo[0].lo rcvdPkFromHl:sum(packetBytes) 0
attr interpolationmode none
attr source packetReceivedFromUpper
attr title "packets received from higher layer, sum(packetBytes)"
scalar Red.H_1.lo[0].lo passedUpPk:count 0
attr interpolationmode none
attr source packetSentToUpper
attr title "packets passed to higher layer, count"
scalar Red.H_1.lo[0].lo passedUpPk:sum(packetBytes) 0
attr interpolationmode none
attr source packetSentToUpper
attr title "packets passed to higher layer, sum(packetBytes)"
par Red.H_1.lo[0] typename "\"inet.linklayer.loopback.LoopbackInterface\""
par Red.H_1.lo[0] displayStringTextFormat "\"%a (%i)\\n%m\""
par Red.H_1.lo[0] recordPcap false
par Red.H_1.lo[0] numPcapRecorders 0
par Red.H_1.lo[0] interfaceTableModule "\"Red.H_1.interfaceTable\""
par Red.H_1.eth[0].mac.phys$o.channel typename "\"ned.IdealChannel\""
par Red.H_1.eth[0].phys$i.channel typename "\"ned.IdealChannel\""
par Red.H_1.eth[0].encap.upperLayerOut.channel typename "\"ned.IdealChannel\""
par Red.H_1.eth[0].upperLayerIn.channel typename "\"ned.IdealChannel\""
par Red.H_1.eth[0].encap typename "\"inet.linklayer.ethernet.basic.EthernetEncapsulation\""
par Red.H_1.eth[0].encap interfaceTableModule "\"Red.H_1.interfaceTable\""
par Red.H_1.eth[0].encap useSNAP false
par Red.H_1.eth[0].encap fcsMode "\"declared\""
attr enum declared,computed
par Red.H_1.eth[0].encap registerProtocol false
par Red.H_1.eth[0].encap stopOperationExtraTime -1s
attr unit s
par Red.H_1.eth[0].encap stopOperationTimeout 2s
attr unit s
scalar Red.H_1.eth[0].encap pauseSent:count 0
attr title "pause sent, count"
scalar Red.H_1.eth[0].encap pauseSent:sum 0
attr title "pause sent, sum"
scalar Red.H_1.eth[0].encap decapPk:count 2
attr interpolationmode none
attr source decapPk
attr title "packets decapsulated, count"
scalar Red.H_1.eth[0].encap decapPk:sum(packetBytes) 92
attr interpolationmode none
attr source decapPk
attr title "packets decapsulated, sum(packetBytes)"
scalar Red.H_1.eth[0].encap encapPk:count 0
attr interpolationmode none
attr source encapPk
attr title "packets encapsulated, count"
scalar Red.H_1.eth[0].encap encapPk:sum(packetBytes) 0
attr interpolationmode none
attr source encapPk
attr title "packets encapsulated, sum(packetBytes)"
par Red.H_1.eth[0].mac.queue typename "\"inet.linklayer.ethernet.common.EthernetQueue\""
par Red.H_1.eth[0].mac.queue displayStringTextFormat "\"contains %p pk (%l) pushed %u\\npulled %o removed %r dropped %d\""
par Red.H_1.eth[0].mac.queue packetCapacity 10000
par Red.H_1.eth[0].mac.queue dataCapacity -1b
attr unit b
par Red.H_1.eth[0].mac.queue dropperClass "\"inet::queueing::PacketAtCollectionEndDropper\""
par Red.H_1.eth[0].mac.queue comparatorClass "\"inet::EthernetFrameTypeComparator\""
par Red.H_1.eth[0].mac.queue bufferModule "\"\""
scalar Red.H_1.eth[0].mac.queue packetPulled:count 0
attr interpolationmode none
attr title "packet pulled, count"
scalar Red.H_1.eth[0].mac.queue packetPulled:sum(packetBytes) 0
attr interpolationmode none
attr title "packet pulled, sum(packetBytes)"
statistic Red.H_1.eth[0].mac.queue queueingTime:histogram
field count 0
field mean -nan
field stddev -nan
field min -nan
field max -nan
field sum 0
field sqrsum 0
attr interpolationmode none
attr source queueingTime(packetPulled)
attr title "queueing times, histogram"
attr unit s
bin	-inf	0
bin	0	0
bin	1	0
scalar Red.H_1.eth[0].mac.queue queueLength:max -nan
attr autoWarmupFilter false
attr interpolationmode sample-hold
attr source "warmup(count(packetPushed) - count(packetPulled) - count(packetRemoved) - count(packetDropped))"
attr title "queue length, max"
attr type int
scalar Red.H_1.eth[0].mac.queue queueLength:timeavg -nan
attr autoWarmupFilter false
attr interpolationmode sample-hold
attr source "warmup(count(packetPushed) - count(packetPulled) - count(packetRemoved) - count(packetDropped))"
attr title "queue length, timeavg"
attr type int
scalar Red.H_1.eth[0].mac.queue packetPushed:count 0
attr interpolationmode none
attr title "packet pushed, count"
scalar Red.H_1.eth[0].mac.queue packetPushed:sum(packetBytes) 0
attr interpolationmode none
attr title "packet pushed, sum(packetBytes)"
scalar Red.H_1.eth[0].mac.queue packetDropQueueOverflow:count 0
attr interpolationmode none
attr source packetDropReasonIsQueueOverflow(packetDropped)
attr title "packet drops: queue overflow, count"
scalar Red.H_1.eth[0].mac.queue packetDropQueueOverflow:sum(packetBytes) 0
attr interpolationmode none
attr source packetDropReasonIsQueueOverflow(packetDropped)
attr title "packet drops: queue overflow, sum(packetBytes)"
scalar Red.H_1.eth[0].mac.queue packetRemoved:count 0
attr interpolationmode none
attr title "packets removed, count"
scalar Red.H_1.eth[0].mac.queue packetRemoved:sum(packetBytes) 0
attr interpolationmode none
attr title "packets removed, sum(packetBytes)"
par Red.H_1.eth[0].mac typename "\"inet.linklayer.ethernet.basic.EthernetMac\""
par Red.H_1.eth[0].mac interfaceTableModule "\"Red.H_1.interfaceTable\""
par Red.H_1.eth[0].mac displayStringTextFormat "\"rate: %b\\nsent: %s, rcvd: %r\\nqueue: %q, drop: %d\""
par Red.H_1.eth[0].mac sendRawBytes false
par Red.H_1.eth[0].mac promiscuous false
par Red.H_1.eth[0].mac duplexMode true
par Red.H_1.eth[0].mac mtu 1500B
attr unit B
par Red.H_1.eth[0].mac stopOperationExtraTime -1s
attr unit s
par Red.H_1.eth[0].mac stopOperationTimeout 2s
attr unit s
scalar Red.H_1.eth[0].mac "simulated time" 0.001003390753
scalar Red.H_1.eth[0].mac full-duplex 1
scalar Red.H_1.eth[0].mac "frames/sec sent" 0
scalar Red.H_1.eth[0].mac "frames/sec rcvd" 1993.2414107069
scalar Red.H_1.eth[0].mac "bits/sec sent" 0
scalar Red.H_1.eth[0].mac "bits/sec rcvd" 1020539.6022819
scalar Red.H_1.eth[0].mac "rx channel idle (%)" 99.997129732369
scalar Red.H_1.eth[0].mac "rx channel utilization (%)" 0.002870267631418
scalar Red.H_1.eth[0].mac rxPausePkUnits:count 0
attr interpolationmode none
attr title "pause units received, count"
scalar Red.H_1.eth[0].mac rxPausePkUnits:sum 0
attr interpolationmode none
attr title "pause units received, sum"
scalar Red.H_1.eth[0].mac txPausePkUnits:count 0
attr interpolationmode none
attr title "pause units sent, count"
scalar Red.H_1.eth[0].mac txPausePkUnits:sum 0
attr interpolationmode none
attr title "pause units sent, sum"
scalar Red.H_1.eth[0].mac rxPkOk:count 2
attr interpolationmode none
attr source rxPkOk
attr title "packets received OK, count"
scalar Red.H_1.eth[0].mac rxPkOk:sum(packetBytes) 128
attr interpolationmode none
attr source rxPkOk
attr title "packets received OK, sum(packetBytes)"
scalar Red.H_1.eth[0].mac txPk:count 0
attr interpolationmode none
attr source packetSentToLower
attr title "packets transmitted, count"
scalar Red.H_1.eth[0].mac txPk:sum(packetBytes) 0
attr interpolationmode none
attr source packetSentToLower
attr title "packets transmitted, sum(packetBytes)"
scalar Red.H_1.eth[0].mac packetReceivedFromUpper:count 0
attr interpolationmode none
attr source packetReceivedFromUpper
attr title "packet bytes from higher layer, count"
scalar Red.H_1.eth[0].mac packetReceivedFromUpper:sum(packetBytes) 0
attr interpolationmode none
attr source packetReceivedFromUpper
attr title "packet bytes from higher layer, sum(packetBytes)"
scalar Red.H_1.eth[0].mac passedUpPk:count 2
attr interpolationmode none
attr source packetSentToUpper
attr title "packets passed to higher layer, count"
scalar Red.H_1.eth[0].mac passedUpPk:sum(packetBytes) 128
attr interpolationmode none
attr source packetSentToUpper
attr title "packets passed to higher layer, sum(packetBytes)"
scalar Red.H_1.eth[0].mac packetDropIncorrectlyReceived:count 0
attr interpolationmode none
attr source packetDropReasonIsIncorrectlyReceived(packetDropped)
attr title "packet drop: incorrectly received, count"
scalar Red.H_1.eth[0].mac packetDropIncorrectlyReceived:sum(packetBytes) 0
attr interpolationmode none
attr source packetDropReasonIsIncorrectlyReceived(packetDropped)
attr title "packet drop: incorrectly received, sum(packetBytes)"
scalar Red.H_1.eth[0].mac packetDropInterfaceDown:count 0
attr interpolationmode none
attr source packetDropReasonIsInterfaceDown(packetDropped)
attr title "packet drop: interface down, count"
scalar Red.H_1.eth[0].mac packetDropInterfaceDown:sum(packetBytes) 0
attr interpolationmode none
attr source packetDropReasonIsInterfaceDown(packetDropped)
attr title "packet drop: interface down, sum(packetBytes)"
scalar Red.H_1.eth[0].mac packetDropNotAddressedToUs:count 0
attr interpolationmode none
attr source packetDropReasonIsNotAddressedToUs(packetDropped)
attr title "packet drop: not addressed to us, count"
scalar Red.H_1.eth[0].mac packetDropNotAddressedToUs:sum(packetBytes) 0
attr interpolationmode none
attr source packetDropReasonIsNotAddressedToUs(packetDropped)
attr title "packet drop: not addressed to us, sum(packetBytes)"
par Red.H_1.eth[0] typename "\"inet.linklayer.ethernet.EthernetInterface\""
par Red.H_1.eth[0] displayStringTextFormat "\"%a (%i)\\n%m\""
par Red.H_1.eth[0] recordPcap false
par Red.H_1.eth[0] numPcapRecorders 0
par Red.H_1.eth[0] interfaceTableModule "\"Red.H_1.interfaceTable\""
par Red.H_1.eth[0] address "\"0A-AA-00-00-00-02\""
par Red.H_1.eth[0] duplexMode true
par Red.H_1.eth[0] csmacdSupport false
par Red.H_1.eth[0] bitrate 0bps
attr unit bps
par Red.H_1.eth[0] fcsMode "\"declared\""
attr enum declared,computed
par Red.H_1.ipv4.transportIn.channel typename "\"ned.IdealChannel\""
par Red.H_1.ipv4.up.out[0].channel typename "\"ned.IdealChannel\""
par Red.H_1.ipv4.lp.out[2].channel typename "\"ned.IdealChannel\""
par Red.H_1.ipv4.ifIn.channel typename "\"ned.IdealChannel\""
par Red.H_1.ipv4.configurator typename "\"inet.networklayer.configurator.ipv4.Ipv4NodeConfigurator\""
par Red.H_1.ipv4.configurator interfaceTableModule "\"Red.H_1.interfaceTable\""
par Red.H_1.ipv4.configurator routingTableModule "\"Red.H_1.ipv4.routingTable\""
par Red.H_1.ipv4.configurator networkConfiguratorModule "\"configurator\""
par Red.H_1.ipv4.configurator configureRoutingTable true
par Red.H_1.ipv4.routingTable typename "\"inet.networklayer.ipv4.Ipv4RoutingTable\""
par Red.H_1.ipv4.routingTable interfaceTableModule "\"Red.H_1.interfaceTable\""
par Red.H_1.ipv4.routingTable routerId "\"auto\""
par Red.H_1.ipv4.routingTable netmaskRoutes "\"*\""
par Red.H_1.ipv4.routingTable forwarding false
par Red.H_1.ipv4.routingTable multicastForwarding false
par Red.H_1.ipv4.routingTable useAdminDist false
par Red.H_1.ipv4.routingTable routingFile "\"\""
par Red.H_1.ipv4.natTable typename "\"inet.networklayer.ipv4.Ipv4NatTable\""
par Red.H_1.ipv4.natTable networkProtocolModule "\"^.ip\""
par Red.H_1.ipv4.natTable config "<config/> at content:1"
par Red.H_1.ipv4.up typename "\"inet.common.MessageDispatcher\""
par Red.H_1.ipv4.up displayStringTextFormat "\"processed %p pk (%l)\""
par Red.H_1.ipv4.igmp typename "\"inet.networklayer.ipv4.Igmpv2\""
par Red.H_1.ipv4.igmp interfaceTableModule "\"Red.H_1.interfaceTable\""
par Red.H_1.ipv4.igmp routingTableModule "\"Red.H_1.ipv4.routingTable\""
par Red.H_1.ipv4.igmp crcMode "\"declared\""
attr enum declared,computed
par Red.H_1.ipv4.igmp enabled true
par Red.H_1.ipv4.igmp robustnessVariable 2
par Red.H_1.ipv4.igmp queryInterval 125s
attr unit s
par Red.H_1.ipv4.igmp queryResponseInterval 10s
attr unit s
par Red.H_1.ipv4.igmp groupMembershipInterval 260s
attr unit s
par Red.H_1.ipv4.igmp otherQuerierPresentInterval 255s
attr unit s
par Red.H_1.ipv4.igmp startupQueryInterval 31.25s
attr unit s
par Red.H_1.ipv4.igmp startupQueryCount 2
par Red.H_1.ipv4.igmp lastMemberQueryInterval 1s
attr unit s
par Red.H_1.ipv4.igmp lastMemberQueryCount 2
par Red.H_1.ipv4.igmp unsolicitedReportInterval 10s
attr unit s
par Red.H_1.ipv4.icmp typename "\"inet.networklayer.ipv4.Icmp\""
par Red.H_1.ipv4.icmp interfaceTableModule "\"Red.H_1.interfaceTable\""
par Red.H_1.ipv4.icmp routingTableModule "\"Red.H_1.ipv4.routingTable\""
par Red.H_1.ipv4.icmp crcMode "\"declared\""
attr enum declared,computed
par Red.H_1.ipv4.icmp quoteLength 8B
attr unit B
par Red.H_1.ipv4.mp typename "\"inet.common.MessageDispatcher\""
par Red.H_1.ipv4.mp displayStringTextFormat "\"processed %p pk (%l)\""
par Red.H_1.ipv4.ip typename "\"inet.networklayer.ipv4.Ipv4\""
par Red.H_1.ipv4.ip interfaceTableModule "\"Red.H_1.interfaceTable\""
par Red.H_1.ipv4.ip routingTableModule "\"Red.H_1.ipv4.routingTable\""
par Red.H_1.ipv4.ip arpModule "\"Red.H_1.ipv4.arp\""
par Red.H_1.ipv4.ip icmpModule "\"Red.H_1.ipv4.icmp\""
par Red.H_1.ipv4.ip crcMode "\"declared\""
attr enum declared,computed
par Red.H_1.ipv4.ip timeToLive 32
par Red.H_1.ipv4.ip multicastTimeToLive 32
par Red.H_1.ipv4.ip fragmentTimeout 60s
attr unit s
par Red.H_1.ipv4.ip limitedBroadcast false
par Red.H_1.ipv4.ip directBroadcastInterfaces "\"\""
scalar Red.H_1.ipv4.ip packetDropAddressResolutionFailed:count 0
attr interpolationmode none
attr source packetDropReasonIsAddressResolutionFailed(packetDropped)
attr title "packet drop: address resolution failed, count"
scalar Red.H_1.ipv4.ip packetDropAddressResolutionFailed:sum(packetBytes) 0
attr interpolationmode none
attr source packetDropReasonIsAddressResolutionFailed(packetDropped)
attr title "packet drop: address resolution failed, sum(packetBytes)"
scalar Red.H_1.ipv4.ip packetDropHopLimitReached:count 0
attr interpolationmode none
attr source packetDropReasonIsHopLimitReached(packetDropped)
attr title "packet drop: hop limit reached, count"
scalar Red.H_1.ipv4.ip packetDropHopLimitReached:sum(packetBytes) 0
attr interpolationmode none
attr source packetDropReasonIsHopLimitReached(packetDropped)
attr title "packet drop: hop limit reached, sum(packetBytes)"
scalar Red.H_1.ipv4.ip packetDropForwardingDisabled:count 0
attr interpolationmode none
attr source packetDropReasonIsForwardingDisabled(packetDropped)
attr title "packet drop: forwarding disabled, count"
scalar Red.H_1.ipv4.ip packetDropForwardingDisabled:sum(packetBytes) 0
attr interpolationmode none
attr source packetDropReasonIsForwardingDisabled(packetDropped)
attr title "packet drop: forwarding disabled, sum(packetBytes)"
scalar Red.H_1.ipv4.ip packetDropNoInterfaceFound:count 0
attr interpolationmode none
attr source packetDropReasonIsNoInterfaceFound(packetDropped)
attr title "packet drop: no interface found, count"
scalar Red.H_1.ipv4.ip packetDropNoInterfaceFound:sum(packetBytes) 0
attr interpolationmode none
attr source packetDropReasonIsNoInterfaceFound(packetDropped)
attr title "packet drop: no interface found, sum(packetBytes)"
scalar Red.H_1.ipv4.ip packetDropNoRouteFound:count 0
attr interpolationmode none
attr source packetDropReasonIsNoRouteFound(packetDropped)
attr title "packet drop: no route found, count"
scalar Red.H_1.ipv4.ip packetDropNoRouteFound:sum(packetBytes) 0
attr interpolationmode none
attr source packetDropReasonIsNoRouteFound(packetDropped)
attr title "packet drop: no route found, sum(packetBytes)"
scalar Red.H_1.ipv4.ip packetDropUndefined:count 0
attr interpolationmode none
attr source packetDropReasonIsUndefined(packetDropped)
attr title "packet drop: undefined, count"
scalar Red.H_1.ipv4.ip packetDropUndefined:sum(packetBytes) 0
attr interpolationmode none
attr source packetDropReasonIsUndefined(packetDropped)
attr title "packet drop: undefined, sum(packetBytes)"
par Red.H_1.ipv4.arp typename "\"inet.networklayer.arp.ipv4.Arp\""
par Red.H_1.ipv4.arp interfaceTableModule "\"Red.H_1.interfaceTable\""
par Red.H_1.ipv4.arp routingTableModule "\"Red.H_1.ipv4.routingTable\""
par Red.H_1.ipv4.arp retryTimeout 1s
attr unit s
par Red.H_1.ipv4.arp retryCount 3
par Red.H_1.ipv4.arp cacheTimeout 120s
attr unit s
par Red.H_1.ipv4.arp proxyArpInterfaces "\"\""
scalar Red.H_1.ipv4.arp arpResolutionFailed:count 0
attr title "ARP failed resolutions, count"
scalar Red.H_1.ipv4.arp arpResolutionCompleted:count 0
attr title "ARP completed resolutions, count"
scalar Red.H_1.ipv4.arp arpResolutionInitiated:count 0
attr title "ARP initiated resolutions, count"
scalar Red.H_1.ipv4.arp arpReplySent:count 0
attr source arpReplySent
attr title "ARP replies sent, count"
scalar Red.H_1.ipv4.arp arpReplySent:sum(packetBytes) 0
attr source arpReplySent
attr title "ARP replies sent, sum(packetBytes)"
scalar Red.H_1.ipv4.arp arpRequestSent:count 0
attr source arpRequestSent
attr title "ARP request sent, count"
scalar Red.H_1.ipv4.arp arpRequestSent:sum(packetBytes) 0
attr source arpRequestSent
attr title "ARP request sent, sum(packetBytes)"
par Red.H_1.ipv4.lp typename "\"inet.common.MessageDispatcher\""
par Red.H_1.ipv4.lp displayStringTextFormat "\"processed %p pk (%l)\""
par Red.H_1.ipv4 typename "\"inet.networklayer.ipv4.Ipv4NetworkLayer\""
par Red.H_1.ipv4 forwarding false
par Red.H_1.ipv4 multicastForwarding false
par Red.H_1.ipv4 interfaceTableModule "\"Red.H_1.interfaceTable\""
par Red.H_1.ipv4 displayStringTextFormat "\"%i\""
par Red.H_1.nl typename "\"inet.common.MessageDispatcher\""
par Red.H_1.nl displayStringTextFormat "\"processed %p pk (%l)\""
par Red.H_1.udp typename "\"inet.transportlayer.udp.Udp\""
par Red.H_1.udp interfaceTableModule "\"Red.H_1.interfaceTable\""
par Red.H_1.udp icmpModule "\"^.ipv4.icmp\""
par Red.H_1.udp icmpv6Module "\"^.ipv6.icmpv6\""
par Red.H_1.udp crcMode "\"declared\""
attr enum disabled,declared,computed
scalar Red.H_1.udp packetReceived:count 0
attr interpolationmode none
attr source packetReceived
attr title "packets received, count"
scalar Red.H_1.udp packetReceived:sum(packetBytes) 0
attr interpolationmode none
attr source packetReceived
attr title "packets received, sum(packetBytes)"
scalar Red.H_1.udp packetSent:count 0
attr interpolationmode none
attr source packetSent
attr title "packets sent, count"
scalar Red.H_1.udp packetSent:sum(packetBytes) 0
attr interpolationmode none
attr source packetSent
attr title "packets sent, sum(packetBytes)"
scalar Red.H_1.udp passedUpPk:count 0
attr interpolationmode none
attr source packetSentToUpper
attr title "packets passed up, count"
scalar Red.H_1.udp droppedPkWrongPort:count 0
attr interpolationmode none
attr source packetDropReasonIsNoPortFound(packetDropped)
attr title "packets dropped (wrong port), count"
scalar Red.H_1.udp droppedPkBadChecksum:count 0
attr interpolationmode none
attr source packetDropReasonIsIncorrectlyReceived(packetDropped)
attr title "packets dropped (checksum error), count"
par Red.H_1.tcp typename "\"inet.transportlayer.tcp.Tcp\""
par Red.H_1.tcp crcMode "\"declared\""
attr enum declared,computed
par Red.H_1.tcp advertisedWindow 7504
par Red.H_1.tcp delayedAcksEnabled false
par Red.H_1.tcp nagleEnabled true
par Red.H_1.tcp limitedTransmitEnabled false
par Red.H_1.tcp increasedIWEnabled false
par Red.H_1.tcp sackSupport false
par Red.H_1.tcp windowScalingSupport false
par Red.H_1.tcp windowScalingFactor -1
par Red.H_1.tcp timestampSupport false
par Red.H_1.tcp mss 536
par Red.H_1.tcp msl 120s
attr unit s
par Red.H_1.tcp tcpAlgorithmClass "\"TcpReno\""
attr enum TcpVegas,TcpWestwood,TcpNewReno,TcpReno,TcpTahoe,TcpNoCongestionControl
par Red.H_1.tcp useDataNotification false
par Red.H_1.tcp dupthresh 3
par Red.H_1.tcp initialSsthresh 4294967295
par Red.H_1.tcp stopOperationExtraTime 0s
attr unit s
par Red.H_1.tcp stopOperationTimeout 2s
attr unit s
par Red.H_1.tcp ecnWillingness false
par Red.H_1.tcp dctcpGamma 0.0625
par Red.H_1.tn typename "\"inet.common.MessageDispatcher\""
par Red.H_1.tn displayStringTextFormat "\"processed %p pk (%l)\""
par Red.H_1.app[0] typename "\"inet.applications.udpapp.UdpBasicApp\""
par Red.H_1.app[0] interfaceTableModule "\"Red.H_1.interfaceTable\""
par Red.H_1.app[0] clockModule "\"\""
par Red.H_1.app[0] localPort 1000
par Red.H_1.app[0] destAddresses "\"\""
par Red.H_1.app[0] localAddress "\"\""
par Red.H_1.app[0] packetName "\"UdpBasicAppData\""
par Red.H_1.app[0] destPort 1000
par Red.H_1.app[0] messageLength 1000B
attr unit B
par Red.H_1.app[0] startTime 0.001s
attr unit s
par Red.H_1.app[0] stopTime -1s
attr unit s
par Red.H_1.app[0] sendInterval 0.001s
attr unit s
par Red.H_1.app[0] timeToLive -1
par Red.H_1.app[0] dontFragment false
par Red.H_1.app[0] dscp -1
par Red.H_1.app[0] tos -1
par Red.H_1.app[0] multicastInterface "\"\""
par Red.H_1.app[0] receiveBroadcast false
par Red.H_1.app[0] joinLocalMulticastGroups false
par Red.H_1.app[0] stopOperationExtraTime -1s
attr unit s
par Red.H_1.app[0] stopOperationTimeout 2s
attr unit s
scalar Red.H_1.app[0] "packets sent" 0
scalar Red.H_1.app[0] "packets received" 0
scalar Red.H_1.app[0] packetReceived:count 0
attr interpolationmode none
attr source packetReceived
attr title "packets received, count"
scalar Red.H_1.app[0] packetReceived:sum(packetBytes) 0
attr interpolationmode none
attr source packetReceived
attr title "packets received, sum(packetBytes)"
statistic Red.H_1.app[0] rcvdPkLifetime:stats
field count 0
field mean -nan
field stddev -nan
field min -nan
field max -nan
field sum 0
field sqrsum 0
attr interpolationmode none
attr source dataAge(packetReceived)
attr title "received packet lifetime, stats"
attr unit s
scalar Red.H_1.app[0] packetSent:count 0
attr interpolationmode none
attr source packetSent
attr title "packets sent, count"
scalar Red.H_1.app[0] packetSent:sum(packetBytes) 0
attr interpolationmode none
attr source packetSent
attr title "packets sent, sum(packetBytes)"
par Red.H_1.at typename "\"inet.common.MessageDispatcher\""
par Red.H_1.at displayStringTextFormat "\"processed %p pk (%l)\""
par Red.H_1 typename "\"inet.node.inet.StandardHost\""
par Red.H_1 hasStatus false
par Red.H_1 osgModel "\"\""
par Red.H_1 osgModelColor "\"\""
par Red.H_1 canvasImage "\"\""
par Red.H_1 canvasImageColor "\"\""
par Red.H_1 recordPcap false
par Red.H_1 numPcapRecorders 0
par Red.H_1 numLoInterfaces 1
par Red.H_1 numWlanInterfaces 0
par Red.H_1 numEthInterfaces 0
par Red.H_1 numPppInterfaces 0
par Red.H_1 numTunInterfaces 0
par Red.H_1 numVirtInterfaces 0
par Red.H_1 hasIpv4 true
par Red.H_1 hasIpv6 false
par Red.H_1 hasGn false
par Red.H_1 forwarding false
par Red.H_1 multicastForwarding false
par Red.H_1 hasUdp true
par Red.H_1 hasTcp true
par Red.H_1 hasSctp false
par Red.H_1 numApps 1
par Red.H_2.ethg$i[0].channel typename "\"ned.IdealChannel\""
par Red.H_2.eth[0].phys$o.channel typename "\"ned.IdealChannel\""
par Red.H_2.interfaceTable typename "\"inet.networklayer.common.InterfaceTable\""
par Red.H_2.interfaceTable displayAddresses false
par Red.H_2.li typename "\"inet.common.MessageDispatcher\""
par Red.H_2.li displayStringTextFormat "\"processed %p pk (%l)\""
par Red.H_2.lo[0].upperLayerIn.channel typename "\"ned.IdealChannel\""
par Red.H_2.lo[0].lo.upperLayerOut.channel typename "\"ned.IdealChannel\""
par Red.H_2.lo[0].lo typename "\"inet.linklayer.loopback.Loopback\""
par Red.H_2.lo[0].lo interfaceTableModule "\"Red.H_2.interfaceTable\""
par Red.H_2.lo[0].lo mtu 4470B
attr unit B
scalar Red.H_2.lo[0].lo rcvdPkFromHl:count 0
attr interpolationmode none
attr source packetReceivedFromUpper
attr title "packets received from higher layer, count"
scalar Red.H_2.lo[0].lo rcvdPkFromHl:sum(packetBytes) 0
attr interpolationmode none
attr source packetReceivedFromUpper
attr title "packets received from higher layer, sum(packetBytes)"
scalar Red.H_2.lo[0].lo passedUpPk:count 0
attr interpolationmode none
attr source packetSentToUpper
attr title "packets passed to higher layer, count"
scalar Red.H_2.lo[0].lo passedUpPk:sum(packetBytes) 0
attr interpolationmode none
attr source packetSentToUpper
attr title "packets passed to higher layer, sum(packetBytes)"
par Red.H_2.lo[0] typename "\"inet.linklayer.loopback.LoopbackInterface\""
par Red.H_2.lo[0] displayStringTextFormat "\"%a (%i)\\n%m\""
par Red.H_2.lo[0] recordPcap false
par Red.H_2.lo[0] numPcapRecorders 0
par Red.H_2.lo[0] interfaceTableModule "\"Red.H_2.interfaceTable\""
par Red.H_2.eth[0].mac.phys$o.channel typename "\"ned.IdealChannel\""
par Red.H_2.eth[0].phys$i.channel typename "\"ned.IdealChannel\""
par Red.H_2.eth[0].encap.upperLayerOut.channel typename "\"ned.IdealChannel\""
par Red.H_2.eth[0].upperLayerIn.channel typename "\"ned.IdealChannel\""
par Red.H_2.eth[0].encap typename "\"inet.linklayer.ethernet.basic.EthernetEncapsulation\""
par Red.H_2.eth[0].encap interfaceTableModule "\"Red.H_2.interfaceTable\""
par Red.H_2.eth[0].encap useSNAP false
par Red.H_2.eth[0].encap fcsMode "\"declared\""
attr enum declared,computed
par Red.H_2.eth[0].encap registerProtocol false
par Red.H_2.eth[0].encap stopOperationExtraTime -1s
attr unit s
par Red.H_2.eth[0].encap stopOperationTimeout 2s
attr unit s
scalar Red.H_2.eth[0].encap pauseSent:count 0
attr title "pause sent, count"
scalar Red.H_2.eth[0].encap pauseSent:sum 0
attr title "pause sent, sum"
scalar Red.H_2.eth[0].encap decapPk:count 1
attr interpolationmode none
attr source decapPk
attr title "packets decapsulated, count"
scalar Red.H_2.eth[0].encap decapPk:sum(packetBytes) 46
attr interpolationmode none
attr source decapPk
attr title "packets decapsulated, sum(packetBytes)"
scalar Red.H_2.eth[0].encap encapPk:count 1
attr interpolationmode none
attr source encapPk
attr title "packets encapsulated, count"
scalar Red.H_2.eth[0].encap encapPk:sum(packetBytes) 28
attr interpolationmode none
attr source encapPk
attr title "packets encapsulated, sum(packetBytes)"
par Red.H_2.eth[0].mac.queue typename "\"inet.linklayer.ethernet.common.EthernetQueue\""
par Red.H_2.eth[0].mac.queue displayStringTextFormat "\"contains %p pk (%l) pushed %u\\npulled %o removed %r dropped %d\""
par Red.H_2.eth[0].mac.queue packetCapacity 10000
par Red.H_2.eth[0].mac.queue dataCapacity -1b
attr unit b
par Red.H_2.eth[0].mac.queue dropperClass "\"inet::queueing::PacketAtCollectionEndDropper\""
par Red.H_2.eth[0].mac.queue comparatorClass "\"inet::EthernetFrameTypeComparator\""
par Red.H_2.eth[0].mac.queue bufferModule "\"\""
scalar Red.H_2.eth[0].mac.queue packetPulled:count 1
attr interpolationmode none
attr title "packet pulled, count"
scalar Red.H_2.eth[0].mac.queue packetPulled:sum(packetBytes) 46
attr interpolationmode none
attr title "packet pulled, sum(packetBytes)"
statistic Red.H_2.eth[0].mac.queue queueingTime:histogram
field count 1
field mean 0
field stddev -nan
field min 0
field max 0
field sum 0
field sqrsum 0
attr interpolationmode none
attr source queueingTime(packetPulled)
attr title "queueing times, histogram"
attr unit s
bin	-inf	0
bin	-0.5	0
bin	-0.48	0
bin	-0.46	0
bin	-0.44	0
bin	-0.42	0
bin	-0.4	0
bin	-0.38	0
bin	-0.36	0
bin	-0.34	0
bin	-0.32	0
bin	-0.3	0
bin	-0.28	0
bin	-0.26	0
bin	-0.24	0
bin	-0.22	0
bin	-0.2	0
bin	-0.18	0
bin	-0.16	0
bin	-0.14	0
bin	-0.12	0
bin	-0.1	0
bin	-0.08	0
bin	-0.06	0
bin	-0.04	0
bin	-0.02	0
bin	0	1
bin	0.02	0
bin	0.04	0
bin	0.06	0
bin	0.08	0
bin	0.1	0
bin	0.12	0
bin	0.14	0
bin	0.16	0
bin	0.18	0
bin	0.2	0
bin	0.22	0
bin	0.24	0
bin	0.26	0
bin	0.28	0
bin	0.3	0
bin	0.32	0
bin	0.34	0
bin	0.36	0
bin	0.38	0
bin	0.4	0
bin	0.42	0
bin	0.44	0
bin	0.46	0
bin	0.48	0
bin	0.5	0
scalar Red.H_2.eth[0].mac.queue queueLength:max 1
attr autoWarmupFilter false
attr interpolationmode sample-hold
attr source "warmup(count(packetPushed) - count(packetPulled) - count(packetRemoved) - count(packetDropped))"
attr title "queue length, max"
attr type int
scalar Red.H_2.eth[0].mac.queue queueLength:timeavg 0
attr autoWarmupFilter false
attr interpolationmode sample-hold
attr source "warmup(count(packetPushed) - count(packetPulled) - count(packetRemoved) - count(packetDropped))"
attr title "queue length, timeavg"
attr type int
scalar Red.H_2.eth[0].mac.queue packetPushed:count 1
attr interpolationmode none
attr title "packet pushed, count"
scalar Red.H_2.eth[0].mac.queue packetPushed:sum(packetBytes) 46
attr interpolationmode none
attr title "packet pushed, sum(packetBytes)"
scalar Red.H_2.eth[0].mac.queue packetDropQueueOverflow:count 0
attr interpolationmode none
attr source packetDropReasonIsQueueOverflow(packetDropped)
attr title "packet drops: queue overflow, count"
scalar Red.H_2.eth[0].mac.queue packetDropQueueOverflow:sum(packetBytes) 0
attr interpolationmode none
attr source packetDropReasonIsQueueOverflow(packetDropped)
attr title "packet drops: queue overflow, sum(packetBytes)"
scalar Red.H_2.eth[0].mac.queue packetRemoved:count 0
attr interpolationmode none
attr title "packets removed, count"
scalar Red.H_2.eth[0].mac.queue packetRemoved:sum(packetBytes) 0
attr interpolationmode none
attr title "packets removed, sum(packetBytes)"
par Red.H_2.eth[0].mac typename "\"inet.linklayer.ethernet.basic.EthernetMac\""
par Red.H_2.eth[0].mac interfaceTableModule "\"Red.H_2.interfaceTable\""
par Red.H_2.eth[0].mac displayStringTextFormat "\"rate: %b\\nsent: %s, rcvd: %r\\nqueue: %q, drop: %d\""
par Red.H_2.eth[0].mac sendRawBytes false
par Red.H_2.eth[0].mac promiscuous false
par Red.H_2.eth[0].mac duplexMode true
par Red.H_2.eth[0].mac mtu 1500B
attr unit B
par Red.H_2.eth[0].mac stopOperationExtraTime -1s
attr unit s
par Red.H_2.eth[0].mac stopOperationTimeout 2s
attr unit s
scalar Red.H_2.eth[0].mac "simulated time" 0.001003390753
scalar Red.H_2.eth[0].mac full-duplex 1
scalar Red.H_2.eth[0].mac "frames/sec sent" 996.62070535346
scalar Red.H_2.eth[0].mac "frames/sec rcvd" 996.62070535346
scalar Red.H_2.eth[0].mac "bits/sec sent" 510269.80114097
scalar Red.H_2.eth[0].mac "bits/sec rcvd" 510269.80114097
scalar Red.H_2.eth[0].mac "rx channel idle (%)" 99.998564866184
scalar Red.H_2.eth[0].mac "rx channel utilization (%)" 0.001435133815709
scalar Red.H_2.eth[0].mac rxPausePkUnits:count 0
attr interpolationmode none
attr title "pause units received, count"
scalar Red.H_2.eth[0].mac rxPausePkUnits:sum 0
attr interpolationmode none
attr title "pause units received, sum"
scalar Red.H_2.eth[0].mac txPausePkUnits:count 0
attr interpolationmode none
attr title "pause units sent, count"
scalar Red.H_2.eth[0].mac txPausePkUnits:sum 0
attr interpolationmode none
attr title "pause units sent, sum"
scalar Red.H_2.eth[0].mac rxPkOk:count 1
attr interpolationmode none
attr source rxPkOk
attr title "packets received OK, count"
scalar Red.H_2.eth[0].mac rxPkOk:sum(packetBytes) 64
attr interpolationmode none
attr source rxPkOk
attr title "packets received OK, sum(packetBytes)"
scalar Red.H_2.eth[0].mac txPk:count 1
attr interpolationmode none
attr source packetSentToLower
attr title "packets transmitted, count"
scalar Red.H_2.eth[0].mac txPk:sum(packetBytes) 64
attr interpolationmode none
attr source packetSentToLower
attr title "packets transmitted, sum(packetBytes)"
scalar Red.H_2.eth[0].mac packetReceivedFromUpper:count 1
attr interpolationmode none
attr source packetReceivedFromUpper
attr title "packet bytes from higher layer, count"
scalar Red.H_2.eth[0].mac packetReceivedFromUpper:sum(packetBytes) 46
attr interpolationmode none
attr source packetReceivedFromUpper
attr title "packet bytes from higher layer, sum(packetBytes)"
scalar Red.H_2.eth[0].mac passedUpPk:count 1
attr interpolationmode none
attr source packetSentToUpper
attr title "packets passed to higher layer, count"
scalar Red.H_2.eth[0].mac passedUpPk:sum(packetBytes) 64
attr interpolationmode none
attr source packetSentToUpper
attr title "packets passed to higher layer, sum(packetBytes)"
scalar Red.H_2.eth[0].mac packetDropIncorrectlyReceived:count 0
attr interpolationmode none
attr source packetDropReasonIsIncorrectlyReceived(packetDropped)
attr title "packet drop: incorrectly received, count"
scalar Red.H_2.eth[0].mac packetDropIncorrectlyReceived:sum(packetBytes) 0
attr interpolationmode none
attr source packetDropReasonIsIncorrectlyReceived(packetDropped)
attr title "packet drop: incorrectly received, sum(packetBytes)"
scalar Red.H_2.eth[0].mac packetDropInterfaceDown:count 0
attr interpolationmode none
attr source packetDropReasonIsInterfaceDown(packetDropped)
attr title "packet drop: interface down, count"
scalar Red.H_2.eth[0].mac packetDropInterfaceDown:sum(packetBytes) 0
attr interpolationmode none
attr source packetDropReasonIsInterfaceDown(packetDropped)
attr title "packet drop: interface down, sum(packetBytes)"
scalar Red.H_2.eth[0].mac packetDropNotAddressedToUs:count 0
attr interpolationmode none
attr source packetDropReasonIsNotAddressedToUs(packetDropped)
attr title "packet drop: not addressed to us, count"
scalar Red.H_2.eth[0].mac packetDropNotAddressedToUs:sum(packetBytes) 0
attr interpolationmode none
attr source packetDropReasonIsNotAddressedToUs(packetDropped)
attr title "packet drop: not addressed to us, sum(packetBytes)"
par Red.H_2.eth[0] typename "\"inet.linklayer.ethernet.EthernetInterface\""
par Red.H_2.eth[0] displayStringTextFormat "\"%a (%i)\\n%m\""
par Red.H_2.eth[0] recordPcap false
par Red.H_2.eth[0] numPcapRecorders 0
par Red.H_2.eth[0] interfaceTableModule "\"Red.H_2.interfaceTable\""
par Red.H_2.eth[0] address "\"0A-AA-00-00-00-03\""
par Red.H_2.eth[0] duplexMode true
par Red.H_2.eth[0] csmacdSupport false
par Red.H_2.eth[0] bitrate 0bps
attr unit bps
par Red.H_2.eth[0] fcsMode "\"declared\""
attr enum declared,computed
par Red.H_2.ipv4.transportIn.channel typename "\"ned.IdealChannel\""
par Red.H_2.ipv4.up.out[0].channel typename "\"ned.IdealChannel\""
par Red.H_2.ipv4.lp.out[2].channel typename "\"ned.IdealChannel\""
par Red.H_2.ipv4.ifIn.channel typename "\"ned.IdealChannel\""
par Red.H_2.ipv4.configurator typename "\"inet.networklayer.configurator.ipv4.Ipv4NodeConfigurator\""
par Red.H_2.ipv4.configurator interfaceTableModule "\"Red.H_2.interfaceTable\""
par Red.H_2.ipv4.configurator routingTableModule "\"Red.H_2.ipv4.routingTable\""
par Red.H_2.ipv4.configurator networkConfiguratorModule "\"configurator\""
par Red.H_2.ipv4.configurator configureRoutingTable true
par Red.H_2.ipv4.routingTable typename "\"inet.networklayer.ipv4.Ipv4RoutingTable\""
par Red.H_2.ipv4.routingTable interfaceTableModule "\"Red.H_2.interfaceTable\""
par Red.H_2.ipv4.routingTable routerId "\"auto\""
par Red.H_2.ipv4.routingTable netmaskRoutes "\"*\""
par Red.H_2.ipv4.routingTable forwarding false
par Red.H_2.ipv4.routingTable multicastForwarding false
par Red.H_2.ipv4.routingTable useAdminDist false
par Red.H_2.ipv4.routingTable routingFile "\"\""
par Red.H_2.ipv4.natTable typename "\"inet.networklayer.ipv4.Ipv4NatTable\""
par Red.H_2.ipv4.natTable networkProtocolModule "\"^.ip\""
par Red.H_2.ipv4.natTable config "<config/> at content:1"
par Red.H_2.ipv4.up typename "\"inet.common.MessageDispatcher\""
par Red.H_2.ipv4.up displayStringTextFormat "\"processed %p pk (%l)\""
par Red.H_2.ipv4.igmp typename "\"inet.networklayer.ipv4.Igmpv2\""
par Red.H_2.ipv4.igmp interfaceTableModule "\"Red.H_2.interfaceTable\""
par Red.H_2.ipv4.igmp routingTableModule "\"Red.H_2.ipv4.routingTable\""
par Red.H_2.ipv4.igmp crcMode "\"declared\""
attr enum declared,computed
par Red.H_2.ipv4.igmp enabled true
par Red.H_2.ipv4.igmp robustnessVariable 2
par Red.H_2.ipv4.igmp queryInterval 125s
attr unit s
par Red.H_2.ipv4.igmp queryResponseInterval 10s
attr unit s
par Red.H_2.ipv4.igmp groupMembershipInterval 260s
attr unit s
par Red.H_2.ipv4.igmp otherQuerierPresentInterval 255s
attr unit s
par Red.H_2.ipv4.igmp startupQueryInterval 31.25s
attr unit s
par Red.H_2.ipv4.igmp startupQueryCount 2
par Red.H_2.ipv4.igmp lastMemberQueryInterval 1s
attr unit s
par Red.H_2.ipv4.igmp lastMemberQueryCount 2
par Red.H_2.ipv4.igmp unsolicitedReportInterval 10s
attr unit s
par Red.H_2.ipv4.icmp typename "\"inet.networklayer.ipv4.Icmp\""
par Red.H_2.ipv4.icmp interfaceTableModule "\"Red.H_2.interfaceTable\""
par Red.H_2.ipv4.icmp routingTableModule "\"Red.H_2.ipv4.routingTable\""
par Red.H_2.ipv4.icmp crcMode "\"declared\""
attr enum declared,computed
par Red.H_2.ipv4.icmp quoteLength 8B
attr unit B
par Red.H_2.ipv4.mp typename "\"inet.common.MessageDispatcher\""
par Red.H_2.ipv4.mp displayStringTextFormat "\"processed %p pk (%l)\""
par Red.H_2.ipv4.ip typename "\"inet.networklayer.ipv4.Ipv4\""
par Red.H_2.ipv4.ip interfaceTableModule "\"Red.H_2.interfaceTable\""
par Red.H_2.ipv4.ip routingTableModule "\"Red.H_2.ipv4.routingTable\""
par Red.H_2.ipv4.ip arpModule "\"Red.H_2.ipv4.arp\""
par Red.H_2.ipv4.ip icmpModule "\"Red.H_2.ipv4.icmp\""
par Red.H_2.ipv4.ip crcMode "\"declared\""
attr enum declared,computed
par Red.H_2.ipv4.ip timeToLive 32
par Red.H_2.ipv4.ip multicastTimeToLive 32
par Red.H_2.ipv4.ip fragmentTimeout 60s
attr unit s
par Red.H_2.ipv4.ip limitedBroadcast false
par Red.H_2.ipv4.ip directBroadcastInterfaces "\"\""
scalar Red.H_2.ipv4.ip packetDropAddressResolutionFailed:count 0
attr interpolationmode none
attr source packetDropReasonIsAddressResolutionFailed(packetDropped)
attr title "packet drop: address resolution failed, count"
scalar Red.H_2.ipv4.ip packetDropAddressResolutionFailed:sum(packetBytes) 0
attr interpolationmode none
attr source packetDropReasonIsAddressResolutionFailed(packetDropped)
attr title "packet drop: address resolution failed, sum(packetBytes)"
scalar Red.H_2.ipv4.ip packetDropHopLimitReached:count 0
attr interpolationmode none
attr source packetDropReasonIsHopLimitReached(packetDropped)
attr title "packet drop: hop limit reached, count"
scalar Red.H_2.ipv4.ip packetDropHopLimitReached:sum(packetBytes) 0
attr interpolationmode none
attr source packetDropReasonIsHopLimitReached(packetDropped)
attr title "packet drop: hop limit reached, sum(packetBytes)"
scalar Red.H_2.ipv4.ip packetDropForwardingDisabled:count 0
attr interpolationmode none
attr source packetDropReasonIsForwardingDisabled(packetDropped)
attr title "packet drop: forwarding disabled, count"
scalar Red.H_2.ipv4.ip packetDropForwardingDisabled:sum(packetBytes) 0
attr interpolationmode none
attr source packetDropReasonIsForwardingDisabled(packetDropped)
attr title "packet drop: forwarding disabled, sum(packetBytes)"
scalar Red.H_2.ipv4.ip packetDropNoInterfaceFound:count 0
attr interpolationmode none
attr source packetDropReasonIsNoInterfaceFound(packetDropped)
attr title "packet drop: no interface found, count"
scalar Red.H_2.ipv4.ip packetDropNoInterfaceFound:sum(packetBytes) 0
attr interpolationmode none
[...]
bin	1.4e-08	0
bin	1.45e-08	0
bin	1.5e-08	0
bin	1.55e-08	0
bin	1.6e-08	0
bin	1.65e-08	1
bin	1.7e-08	0
bin	1.75e-08	0
bin	1.8e-08	0
bin	1.85e-08	0
bin	1.9e-08	0
bin	1.95e-08	0
bin	2e-08	0
bin	2.05e-08	0
bin	2.1e-08	0
bin	2.15e-08	0
bin	2.2e-08	0
bin	2.25e-08	0
bin	2.3e-08	0
bin	2.35e-08	0
bin	2.4e-08	0
bin	2.45e-08	0
bin	2.5e-08	0
bin	2.55e-08	0
bin	2.6e-08	0
bin	2.65e-08	0
bin	2.7e-08	0
bin	2.75e-08	0
bin	2.8e-08	0
bin	2.85e-08	0
bin	2.9e-08	0
bin	2.95e-08	0
bin	3e-08	0
bin	3.05e-08	0
bin	3.1e-08	0
bin	3.15e-08	0
bin	3.2e-08	0
bin	3.25e-08	0
bin	3.3e-08	0
bin	3.35e-08	2
bin	3.4e-08	0
bin	3.45e-08	0
bin	3.5e-08	0
bin	3.55e-08	0
bin	3.6e-08	0
bin	3.65e-08	0
bin	3.7e-08	0
bin	3.75e-08	0
bin	3.8e-08	0
bin	3.85e-08	0
bin	3.9e-08	0
bin	3.95e-08	0
bin	4e-08	0
bin	4.05e-08	0
bin	4.1e-08	0
bin	4.15e-08	0
bin	4.2e-08	0
scalar Red.SW_3_2.eth[2].mac.queue queueLength:max 2
attr autoWarmupFilter false
attr interpolationmode sample-hold
attr source "warmup(count(packetPushed) - count(packetPulled) - count(packetRemoved) - count(packetDropped))"
attr title "queue length, max"
attr type int
scalar Red.SW_3_2.eth[2].mac.queue queueLength:timeavg 0.061676137135422
attr autoWarmupFilter false
attr interpolationmode sample-hold
attr source "warmup(count(packetPushed) - count(packetPulled) - count(packetRemoved) - count(packetDropped))"
attr title "queue length, timeavg"
attr type int
scalar Red.SW_3_2.eth[2].mac.queue packetPushed:count 4
attr interpolationmode none
attr title "packet pushed, count"
scalar Red.SW_3_2.eth[2].mac.queue packetPushed:sum(packetBytes) 256
attr interpolationmode none
attr title "packet pushed, sum(packetBytes)"
scalar Red.SW_3_2.eth[2].mac.queue packetDropQueueOverflow:count 0
attr interpolationmode none
attr source packetDropReasonIsQueueOverflow(packetDropped)
attr title "packet drops: queue overflow, count"
scalar Red.SW_3_2.eth[2].mac.queue packetDropQueueOverflow:sum(packetBytes) 0
attr interpolationmode none
attr source packetDropReasonIsQueueOverflow(packetDropped)
attr title "packet drops: queue overflow, sum(packetBytes)"
scalar Red.SW_3_2.eth[2].mac.queue packetRemoved:count 0
attr interpolationmode none
attr title "packets removed, count"
scalar Red.SW_3_2.eth[2].mac.queue packetRemoved:sum(packetBytes) 0
attr interpolationmode none
attr title "packets removed, sum(packetBytes)"
par Red.SW_3_2.eth[2].mac typename "\"inet.linklayer.ethernet.basic.EthernetMac\""
par Red.SW_3_2.eth[2].mac interfaceTableModule "\"Red.SW_3_2.interfaceTable\""
par Red.SW_3_2.eth[2].mac displayStringTextFormat "\"rate: %b\\nsent: %s, rcvd: %r\\nqueue: %q, drop: %d\""
par Red.SW_3_2.eth[2].mac sendRawBytes false
par Red.SW_3_2.eth[2].mac promiscuous true
par Red.SW_3_2.eth[2].mac duplexMode true
par Red.SW_3_2.eth[2].mac mtu 1500B
attr unit B
par Red.SW_3_2.eth[2].mac stopOperationExtraTime -1s
attr unit s
par Red.SW_3_2.eth[2].mac stopOperationTimeout 2s
attr unit s
scalar Red.SW_3_2.eth[2].mac "simulated time" 0.001003390753
scalar Red.SW_3_2.eth[2].mac full-duplex 1
scalar Red.SW_3_2.eth[2].mac "frames/sec sent" 3986.4828214138
scalar Red.SW_3_2.eth[2].mac "frames/sec rcvd" 996.62070535346
scalar Red.SW_3_2.eth[2].mac "bits/sec sent" 2041079.2045639
scalar Red.SW_3_2.eth[2].mac "bits/sec rcvd" 510269.80114097
scalar Red.SW_3_2.eth[2].mac "rx channel idle (%)" 99.998564866184
scalar Red.SW_3_2.eth[2].mac "rx channel utilization (%)" 0.001435133815709
scalar Red.SW_3_2.eth[2].mac rxPausePkUnits:count 0
attr interpolationmode none
attr title "pause units received, count"
scalar Red.SW_3_2.eth[2].mac rxPausePkUnits:sum 0
attr interpolationmode none
attr title "pause units received, sum"
scalar Red.SW_3_2.eth[2].mac txPausePkUnits:count 0
attr interpolationmode none
attr title "pause units sent, count"
scalar Red.SW_3_2.eth[2].mac txPausePkUnits:sum 0
attr interpolationmode none
attr title "pause units sent, sum"
scalar Red.SW_3_2.eth[2].mac rxPkOk:count 1
attr interpolationmode none
attr source rxPkOk
attr title "packets received OK, count"
scalar Red.SW_3_2.eth[2].mac rxPkOk:sum(packetBytes) 64
attr interpolationmode none
attr source rxPkOk
attr title "packets received OK, sum(packetBytes)"
scalar Red.SW_3_2.eth[2].mac txPk:count 4
attr interpolationmode none
attr source packetSentToLower
attr title "packets transmitted, count"
scalar Red.SW_3_2.eth[2].mac txPk:sum(packetBytes) 256
attr interpolationmode none
attr source packetSentToLower
attr title "packets transmitted, sum(packetBytes)"
scalar Red.SW_3_2.eth[2].mac packetReceivedFromUpper:count 4
attr interpolationmode none
attr source packetReceivedFromUpper
attr title "packet bytes from higher layer, count"
scalar Red.SW_3_2.eth[2].mac packetReceivedFromUpper:sum(packetBytes) 256
attr interpolationmode none
attr source packetReceivedFromUpper
attr title "packet bytes from higher layer, sum(packetBytes)"
scalar Red.SW_3_2.eth[2].mac passedUpPk:count 1
attr interpolationmode none
attr source packetSentToUpper
attr title "packets passed to higher layer, count"
scalar Red.SW_3_2.eth[2].mac passedUpPk:sum(packetBytes) 64
attr interpolationmode none
attr source packetSentToUpper
attr title "packets passed to higher layer, sum(packetBytes)"
scalar Red.SW_3_2.eth[2].mac packetDropIncorrectlyReceived:count 0
attr interpolationmode none
attr source packetDropReasonIsIncorrectlyReceived(packetDropped)
attr title "packet drop: incorrectly received, count"
scalar Red.SW_3_2.eth[2].mac packetDropIncorrectlyReceived:sum(packetBytes) 0
attr interpolationmode none
attr source packetDropReasonIsIncorrectlyReceived(packetDropped)
attr title "packet drop: incorrectly received, sum(packetBytes)"
scalar Red.SW_3_2.eth[2].mac packetDropInterfaceDown:count 0
attr interpolationmode none
attr source packetDropReasonIsInterfaceDown(packetDropped)
attr title "packet drop: interface down, count"
scalar Red.SW_3_2.eth[2].mac packetDropInterfaceDown:sum(packetBytes) 0
attr interpolationmode none
attr source packetDropReasonIsInterfaceDown(packetDropped)
attr title "packet drop: interface down, sum(packetBytes)"
scalar Red.SW_3_2.eth[2].mac packetDropNotAddressedToUs:count 0
attr interpolationmode none
attr source packetDropReasonIsNotAddressedToUs(packetDropped)
attr title "packet drop: not addressed to us, count"
scalar Red.SW_3_2.eth[2].mac packetDropNotAddressedToUs:sum(packetBytes) 0
attr interpolationmode none
attr source packetDropReasonIsNotAddressedToUs(packetDropped)
attr title "packet drop: not addressed to us, sum(packetBytes)"
par Red.SW_3_2.eth[2] typename "\"inet.linklayer.ethernet.EthernetInterface\""
par Red.SW_3_2.eth[2] displayStringTextFormat "\"%a (%i)\\n%m\""
par Red.SW_3_2.eth[2] recordPcap false
par Red.SW_3_2.eth[2] numPcapRecorders 0
par Red.SW_3_2.eth[2] interfaceTableModule "\"Red.SW_3_2.interfaceTable\""
par Red.SW_3_2.eth[2] address "\"0A-AA-00-00-00-2F\""
par Red.SW_3_2.eth[2] duplexMode true
par Red.SW_3_2.eth[2] csmacdSupport false
par Red.SW_3_2.eth[2] bitrate 0bps
attr unit bps
par Red.SW_3_2.eth[2] fcsMode "\"declared\""
attr enum declared,computed
par Red.SW_3_2.eth[3].mac.phys$o.channel typename "\"ned.IdealChannel\""
par Red.SW_3_2.eth[3].phys$i.channel typename "\"ned.IdealChannel\""
par Red.SW_3_2.eth[3].mac.queue typename "\"inet.linklayer.ethernet.common.EthernetQueue\""
par Red.SW_3_2.eth[3].mac.queue displayStringTextFormat "\"contains %p pk (%l) pushed %u\\npulled %o removed %r dropped %d\""
par Red.SW_3_2.eth[3].mac.queue packetCapacity 10000
par Red.SW_3_2.eth[3].mac.queue dataCapacity -1b
attr unit b
par Red.SW_3_2.eth[3].mac.queue dropperClass "\"inet::queueing::PacketAtCollectionEndDropper\""
par Red.SW_3_2.eth[3].mac.queue comparatorClass "\"inet::EthernetFrameTypeComparator\""
par Red.SW_3_2.eth[3].mac.queue bufferModule "\"\""
scalar Red.SW_3_2.eth[3].mac.queue packetPulled:count 4
attr interpolationmode none
attr title "packet pulled, count"
scalar Red.SW_3_2.eth[3].mac.queue packetPulled:sum(packetBytes) 256
attr interpolationmode none
attr title "packet pulled, sum(packetBytes)"
statistic Red.SW_3_2.eth[3].mac.queue queueingTime:histogram
field count 4
field mean 2.1e-08
field stddev 1.6084775410306e-08
field min 0
field max 3.36e-08
field sum 8.4e-08
field sqrsum 2.54016e-15
attr interpolationmode none
attr source queueingTime(packetPulled)
attr title "queueing times, histogram"
attr unit s
bin	-inf	0
bin	0	1
bin	5e-10	0
bin	1e-09	0
bin	1.5e-09	0
bin	2e-09	0
bin	2.5e-09	0
bin	3e-09	0
bin	3.5e-09	0
bin	4e-09	0
bin	4.5e-09	0
bin	5e-09	0
bin	5.5e-09	0
bin	6e-09	0
bin	6.5e-09	0
bin	7e-09	0
bin	7.5e-09	0
bin	8e-09	0
bin	8.5e-09	0
bin	9e-09	0
bin	9.5e-09	0
bin	1e-08	0
bin	1.05e-08	0
bin	1.1e-08	0
bin	1.15e-08	0
bin	1.2e-08	0
bin	1.25e-08	0
bin	1.3e-08	0
bin	1.35e-08	0
bin	1.4e-08	0
bin	1.45e-08	0
bin	1.5e-08	0
bin	1.55e-08	0
bin	1.6e-08	0
bin	1.65e-08	1
bin	1.7e-08	0
bin	1.75e-08	0
bin	1.8e-08	0
bin	1.85e-08	0
bin	1.9e-08	0
bin	1.95e-08	0
bin	2e-08	0
bin	2.05e-08	0
bin	2.1e-08	0
bin	2.15e-08	0
bin	2.2e-08	0
bin	2.25e-08	0
bin	2.3e-08	0
bin	2.35e-08	0
bin	2.4e-08	0
bin	2.45e-08	0
bin	2.5e-08	0
bin	2.55e-08	0
bin	2.6e-08	0
bin	2.65e-08	0
bin	2.7e-08	0
bin	2.75e-08	0
bin	2.8e-08	0
bin	2.85e-08	0
bin	2.9e-08	0
bin	2.95e-08	0
bin	3e-08	0
bin	3.05e-08	0
bin	3.1e-08	0
bin	3.15e-08	0
bin	3.2e-08	0
bin	3.25e-08	0
bin	3.3e-08	0
bin	3.35e-08	2
bin	3.4e-08	0
bin	3.45e-08	0
bin	3.5e-08	0
bin	3.55e-08	0
bin	3.6e-08	0
bin	3.65e-08	0
bin	3.7e-08	0
bin	3.75e-08	0
bin	3.8e-08	0
bin	3.85e-08	0
bin	3.9e-08	0
bin	3.95e-08	0
bin	4e-08	0
bin	4.05e-08	0
bin	4.1e-08	0
bin	4.15e-08	0
bin	4.2e-08	0
scalar Red.SW_3_2.eth[3].mac.queue queueLength:max 2
attr autoWarmupFilter false
attr interpolationmode sample-hold
attr source "warmup(count(packetPushed) - count(packetPulled) - count(packetRemoved) - count(packetDropped))"
attr title "queue length, max"
attr type int
scalar Red.SW_3_2.eth[3].mac.queue queueLength:timeavg 0.061676137135422
attr autoWarmupFilter false
attr interpolationmode sample-hold
attr source "warmup(count(packetPushed) - count(packetPulled) - count(packetRemoved) - count(packetDropped))"
attr title "queue length, timeavg"
attr type int
scalar Red.SW_3_2.eth[3].mac.queue packetPushed:count 4
attr interpolationmode none
attr title "packet pushed, count"
scalar Red.SW_3_2.eth[3].mac.queue packetPushed:sum(packetBytes) 256
attr interpolationmode none
attr title "packet pushed, sum(packetBytes)"
scalar Red.SW_3_2.eth[3].mac.queue packetDropQueueOverflow:count 0
attr interpolationmode none
attr source packetDropReasonIsQueueOverflow(packetDropped)
attr title "packet drops: queue overflow, count"
scalar Red.SW_3_2.eth[3].mac.queue packetDropQueueOverflow:sum(packetBytes) 0
attr interpolationmode none
attr source packetDropReasonIsQueueOverflow(packetDropped)
attr title "packet drops: queue overflow, sum(packetBytes)"
scalar Red.SW_3_2.eth[3].mac.queue packetRemoved:count 0
attr interpolationmode none
attr title "packets removed, count"
scalar Red.SW_3_2.eth[3].mac.queue packetRemoved:sum(packetBytes) 0
attr interpolationmode none
attr title "packets removed, sum(packetBytes)"
par Red.SW_3_2.eth[3].mac typename "\"inet.linklayer.ethernet.basic.EthernetMac\""
par Red.SW_3_2.eth[3].mac interfaceTableModule "\"Red.SW_3_2.interfaceTable\""
par Red.SW_3_2.eth[3].mac displayStringTextFormat "\"rate: %b\\nsent: %s, rcvd: %r\\nqueue: %q, drop: %d\""
par Red.SW_3_2.eth[3].mac sendRawBytes false
par Red.SW_3_2.eth[3].mac promiscuous true
par Red.SW_3_2.eth[3].mac duplexMode true
par Red.SW_3_2.eth[3].mac mtu 1500B
attr unit B
par Red.SW_3_2.eth[3].mac stopOperationExtraTime -1s
attr unit s
par Red.SW_3_2.eth[3].mac stopOperationTimeout 2s
attr unit s
scalar Red.SW_3_2.eth[3].mac "simulated time" 0.001003390753
scalar Red.SW_3_2.eth[3].mac full-duplex 1
scalar Red.SW_3_2.eth[3].mac "frames/sec sent" 3986.4828214138
scalar Red.SW_3_2.eth[3].mac "frames/sec rcvd" 996.62070535346
scalar Red.SW_3_2.eth[3].mac "bits/sec sent" 2041079.2045639
scalar Red.SW_3_2.eth[3].mac "bits/sec rcvd" 510269.80114097
scalar Red.SW_3_2.eth[3].mac "rx channel idle (%)" 99.998564866184
scalar Red.SW_3_2.eth[3].mac "rx channel utilization (%)" 0.001435133815709
scalar Red.SW_3_2.eth[3].mac rxPausePkUnits:count 0
attr interpolationmode none
attr title "pause units received, count"
scalar Red.SW_3_2.eth[3].mac rxPausePkUnits:sum 0
attr interpolationmode none
attr title "pause units received, sum"
scalar Red.SW_3_2.eth[3].mac txPausePkUnits:count 0
attr interpolationmode none
attr title "pause units sent, count"
scalar Red.SW_3_2.eth[3].mac txPausePkUnits:sum 0
attr interpolationmode none
attr title "pause units sent, sum"
scalar Red.SW_3_2.eth[3].mac rxPkOk:count 1
attr interpolationmode none
attr source rxPkOk
attr title "packets received OK, count"
scalar Red.SW_3_2.eth[3].mac rxPkOk:sum(packetBytes) 64
attr interpolationmode none
attr source rxPkOk
attr title "packets received OK, sum(packetBytes)"
scalar Red.SW_3_2.eth[3].mac txPk:count 4
attr interpolationmode none
attr source packetSentToLower
attr title "packets transmitted, count"
scalar Red.SW_3_2.eth[3].mac txPk:sum(packetBytes) 256
attr interpolationmode none
attr source packetSentToLower
attr title "packets transmitted, sum(packetBytes)"
scalar Red.SW_3_2.eth[3].mac packetReceivedFromUpper:count 4
attr interpolationmode none
attr source packetReceivedFromUpper
attr title "packet bytes from higher layer, count"
scalar Red.SW_3_2.eth[3].mac packetReceivedFromUpper:sum(packetBytes) 256
attr interpolationmode none
attr source packetReceivedFromUpper
attr title "packet bytes from higher layer, sum(packetBytes)"
scalar Red.SW_3_2.eth[3].mac passedUpPk:count 1
attr interpolationmode none
attr source packetSentToUpper
attr title "packets passed to higher layer, count"
scalar Red.SW_3_2.eth[3].mac passedUpPk:sum(packetBytes) 64
attr interpolationmode none
attr source packetSentToUpper
attr title "packets passed to higher layer, sum(packetBytes)"
scalar Red.SW_3_2.eth[3].mac packetDropIncorrectlyReceived:count 0
attr interpolationmode none
attr source packetDropReasonIsIncorrectlyReceived(packetDropped)
attr title "packet drop: incorrectly received, count"
scalar Red.SW_3_2.eth[3].mac packetDropIncorrectlyReceived:sum(packetBytes) 0
attr interpolationmode none
attr source packetDropReasonIsIncorrectlyReceived(packetDropped)
attr title "packet drop: incorrectly received, sum(packetBytes)"
scalar Red.SW_3_2.eth[3].mac packetDropInterfaceDown:count 0
attr interpolationmode none
attr source packetDropReasonIsInterfaceDown(packetDropped)
attr title "packet drop: interface down, count"
scalar Red.SW_3_2.eth[3].mac packetDropInterfaceDown:sum(packetBytes) 0
attr interpolationmode none
attr source packetDropReasonIsInterfaceDown(packetDropped)
attr title "packet drop: interface down, sum(packetBytes)"
scalar Red.SW_3_2.eth[3].mac packetDropNotAddressedToUs:count 0
attr interpolationmode none
attr source packetDropReasonIsNotAddressedToUs(packetDropped)
attr title "packet drop: not addressed to us, count"
scalar Red.SW_3_2.eth[3].mac packetDropNotAddressedToUs:sum(packetBytes) 0
attr interpolationmode none
attr source packetDropReasonIsNotAddressedToUs(packetDropped)
attr title "packet drop: not addressed to us, sum(packetBytes)"
par Red.SW_3_2.eth[3] typename "\"inet.linklayer.ethernet.EthernetInterface\""
par Red.SW_3_2.eth[3] displayStringTextFormat "\"%a (%i)\\n%m\""
par Red.SW_3_2.eth[3] recordPcap false
par Red.SW_3_2.eth[3] numPcapRecorders 0
par Red.SW_3_2.eth[3] interfaceTableModule "\"Red.SW_3_2.interfaceTable\""
par Red.SW_3_2.eth[3] address "\"0A-AA-00-00-00-30\""
par Red.SW_3_2.eth[3] duplexMode true
par Red.SW_3_2.eth[3] csmacdSupport false
par Red.SW_3_2.eth[3] bitrate 0bps
attr unit bps
par Red.SW_3_2.eth[3] fcsMode "\"declared\""
attr enum declared,computed
par Red.SW_3_2.encap typename "\"inet.linklayer.ethernet.basic.EthernetEncapsulation\""
par Red.SW_3_2.encap interfaceTableModule "\"Red.SW_3_2.interfaceTable\""
par Red.SW_3_2.encap useSNAP false
par Red.SW_3_2.encap fcsMode "\"declared\""
attr enum declared,computed
par Red.SW_3_2.encap registerProtocol true
par Red.SW_3_2.encap stopOperationExtraTime -1s
attr unit s
par Red.SW_3_2.encap stopOperationTimeout 2s
attr unit s
scalar Red.SW_3_2.encap pauseSent:count 0
attr title "pause sent, count"
scalar Red.SW_3_2.encap pauseSent:sum 0
attr title "pause sent, sum"
scalar Red.SW_3_2.encap decapPk:count 0
attr interpolationmode none
attr source decapPk
attr title "packets decapsulated, count"
scalar Red.SW_3_2.encap decapPk:sum(packetBytes) 0
attr interpolationmode none
attr source decapPk
attr title "packets decapsulated, sum(packetBytes)"
scalar Red.SW_3_2.encap encapPk:count 0
attr interpolationmode none
attr source encapPk
attr title "packets encapsulated, count"
scalar Red.SW_3_2.encap encapPk:sum(packetBytes) 0
attr interpolationmode none
attr source encapPk
attr title "packets encapsulated, sum(packetBytes)"
par Red.SW_3_2.rl typename "\"inet.common.MessageDispatcher\""
par Red.SW_3_2.rl displayStringTextFormat "\"processed %p pk (%l)\""
par Red.SW_3_2.ieee8021q.qTagHeaderInserter.out.channel typename "\"ned.IdealChannel\""
par Red.SW_3_2.ieee8021q.lowerLayerIn.channel typename "\"ned.IdealChannel\""
par Red.SW_3_2.ieee8021q.qTagHeaderInserter typename "\"inet.linklayer.ieee8021q.Ieee8021qTagEpdHeaderInserter\""
par Red.SW_3_2.ieee8021q.qTagHeaderInserter displayStringTextFormat "\"processed %p pk (%l)\""
par Red.SW_3_2.ieee8021q.qTagHeaderInserter vlanTagType "\"c\""
attr enum c,s
par Red.SW_3_2.ieee8021q.qTagHeaderInserter nextProtocol "\"ethernetmac\""
par Red.SW_3_2.ieee8021q.qTagHeaderInserter defaultVlanId -1
par Red.SW_3_2.ieee8021q.qTagHeaderInserter defaultUserPriority -1
scalar Red.SW_3_2.ieee8021q.qTagHeaderInserter packetPulled:count 0
attr interpolationmode none
attr title "packets pulled, count"
scalar Red.SW_3_2.ieee8021q.qTagHeaderInserter packetPulled:sum(packetBytes) 0
attr interpolationmode none
attr title "packets pulled, sum(packetBytes)"
scalar Red.SW_3_2.ieee8021q.qTagHeaderInserter packetPushed:count 0
attr interpolationmode none
attr title "packets pushed, count"
scalar Red.SW_3_2.ieee8021q.qTagHeaderInserter packetPushed:sum(packetBytes) 0
attr interpolationmode none
attr title "packets pushed, sum(packetBytes)"
par Red.SW_3_2.ieee8021q.qTagHeaderChecker typename "\"inet.linklayer.ieee8021q.Ieee8021qTagEpdHeaderChecker\""
par Red.SW_3_2.ieee8021q.qTagHeaderChecker displayStringTextFormat "\"dropped %d/%p pk (%k/%l)\""
par Red.SW_3_2.ieee8021q.qTagHeaderChecker vlanTagType "\"c\""
attr enum c,s
par Red.SW_3_2.ieee8021q.qTagHeaderChecker vlanIdFilter "\"\""
scalar Red.SW_3_2.ieee8021q.qTagHeaderChecker packetPulled:count 0
attr interpolationmode none
attr title "packets pulled, count"
scalar Red.SW_3_2.ieee8021q.qTagHeaderChecker packetPulled:sum(packetBytes) 0
attr interpolationmode none
attr title "packets pulled, sum(packetBytes)"
scalar Red.SW_3_2.ieee8021q.qTagHeaderChecker packetPushed:count 0
attr interpolationmode none
attr title "packets pushed, count"
scalar Red.SW_3_2.ieee8021q.qTagHeaderChecker packetPushed:sum(packetBytes) 0
attr interpolationmode none
attr title "packets pushed, sum(packetBytes)"
scalar Red.SW_3_2.ieee8021q.qTagHeaderChecker packetDropped:count 0
attr interpolationmode none
attr title "packets dropped, count"
scalar Red.SW_3_2.ieee8021q.qTagHeaderChecker packetDropped:sum(packetBytes) 0
attr interpolationmode none
attr title "packets dropped, sum(packetBytes)"
par Red.SW_3_2.ieee8021q typename "\"inet.linklayer.ieee8021q.Ieee8021qLayer\""
par Red.SW_3_2.ieee8021q vlanTagType "\"c\""
par Red.SW_3_2.ieee8021q hasSocketSupport false
par Red.SW_3_2 typename "\"inet.node.ethernet.EthernetSwitch\""
par Red.SW_3_2 numPcapRecorders 0
par Red.SW_3_2 hasStatus false
par Red.SW_3_2 hasStp false
par Red.SW_3_2 enableCutthrough false
par Red.SW_3_2 fcsMode "\"declared\""
attr enum declared,computed
par Red.SW_3_2 spanningTreeProtocol "\"Stp\""
par Red.SW_3_2 numEthInterfaces 0
par Red typename "\"red16hostudp.simulations.Red\""

