version 3
run General-0-20210612-13:41:25-8601
attr configname General
attr datetime 20210612-13:41:25
attr datetimef 20210612-134125
attr experiment General
attr inifile omnetpp.ini
attr iterationvars ""
attr iterationvarsf ""
attr measurement ""
attr network Red
attr processid 8601
attr repetition 0
attr replication #0
attr resultdir results
attr runnumber 0
attr seedset 0
itervar iterationvarsd ""
config image-path ../../inet4/images
config network Red
config sim-time-limit 2s
config **.switch1.**.address "\"AAAAAA000001\""
config **.switch2.**.address "\"AAAAAA000002\""
config **.switch3.**.address "\"AAAAAA000003\""
config **.switch4.**.address "\"AAAAAA000004\""
config **.switch5.**.address "\"AAAAAA000005\""
config **.host1.cli.destAddress "\"host8\""
config **.host8.cli.destAddress "\"host5\""
config **.host4.cli.destAddress "\"host5\""

par Red.host1.ethg$o.channel typename "\"red8.Red.cable\""
par Red.host1.ethg$o.channel disabled false
par Red.host1.ethg$o.channel delay 1e-07s
attr unit s
par Red.host1.ethg$o.channel datarate 1e+07bps
attr unit bps
par Red.host1.ethg$o.channel ber 0
par Red.host1.ethg$o.channel per 0
par Red.switch1.ethg$o[0].channel typename "\"red8.Red.cable\""
par Red.switch1.ethg$o[0].channel disabled false
par Red.switch1.ethg$o[0].channel delay 1e-07s
attr unit s
par Red.switch1.ethg$o[0].channel datarate 1e+07bps
attr unit bps
par Red.switch1.ethg$o[0].channel ber 0
par Red.switch1.ethg$o[0].channel per 0
par Red.host2.ethg$o.channel typename "\"red8.Red.cable\""
par Red.host2.ethg$o.channel disabled false
par Red.host2.ethg$o.channel delay 1e-07s
attr unit s
par Red.host2.ethg$o.channel datarate 1e+07bps
attr unit bps
par Red.host2.ethg$o.channel ber 0
par Red.host2.ethg$o.channel per 0
par Red.switch1.ethg$o[1].channel typename "\"red8.Red.cable\""
par Red.switch1.ethg$o[1].channel disabled false
par Red.switch1.ethg$o[1].channel delay 1e-07s
attr unit s
par Red.switch1.ethg$o[1].channel datarate 1e+07bps
attr unit bps
par Red.switch1.ethg$o[1].channel ber 0
par Red.switch1.ethg$o[1].channel per 0
par Red.host3.ethg$o.channel typename "\"red8.Red.cable\""
par Red.host3.ethg$o.channel disabled false
par Red.host3.ethg$o.channel delay 1e-07s
attr unit s
par Red.host3.ethg$o.channel datarate 1e+07bps
attr unit bps
par Red.host3.ethg$o.channel ber 0
par Red.host3.ethg$o.channel per 0
par Red.switch2.ethg$o[0].channel typename "\"red8.Red.cable\""
par Red.switch2.ethg$o[0].channel disabled false
par Red.switch2.ethg$o[0].channel delay 1e-07s
attr unit s
par Red.switch2.ethg$o[0].channel datarate 1e+07bps
attr unit bps
par Red.switch2.ethg$o[0].channel ber 0
par Red.switch2.ethg$o[0].channel per 0
par Red.host4.ethg$o.channel typename "\"red8.Red.cable\""
par Red.host4.ethg$o.channel disabled false
par Red.host4.ethg$o.channel delay 1e-07s
attr unit s
par Red.host4.ethg$o.channel datarate 1e+07bps
attr unit bps
par Red.host4.ethg$o.channel ber 0
par Red.host4.ethg$o.channel per 0
par Red.switch2.ethg$o[1].channel typename "\"red8.Red.cable\""
par Red.switch2.ethg$o[1].channel disabled false
par Red.switch2.ethg$o[1].channel delay 1e-07s
attr unit s
par Red.switch2.ethg$o[1].channel datarate 1e+07bps
attr unit bps
par Red.switch2.ethg$o[1].channel ber 0
par Red.switch2.ethg$o[1].channel per 0
par Red.host5.ethg$o.channel typename "\"red8.Red.cable\""
par Red.host5.ethg$o.channel disabled false
par Red.host5.ethg$o.channel delay 1e-07s
attr unit s
par Red.host5.ethg$o.channel datarate 1e+07bps
attr unit bps
par Red.host5.ethg$o.channel ber 0
par Red.host5.ethg$o.channel per 0
par Red.switch3.ethg$o[0].channel typename "\"red8.Red.cable\""
par Red.switch3.ethg$o[0].channel disabled false
par Red.switch3.ethg$o[0].channel delay 1e-07s
attr unit s
par Red.switch3.ethg$o[0].channel datarate 1e+07bps
attr unit bps
par Red.switch3.ethg$o[0].channel ber 0
par Red.switch3.ethg$o[0].channel per 0
par Red.host6.ethg$o.channel typename "\"red8.Red.cable\""
par Red.host6.ethg$o.channel disabled false
par Red.host6.ethg$o.channel delay 1e-07s
attr unit s
par Red.host6.ethg$o.channel datarate 1e+07bps
attr unit bps
par Red.host6.ethg$o.channel ber 0
par Red.host6.ethg$o.channel per 0
par Red.switch3.ethg$o[1].channel typename "\"red8.Red.cable\""
par Red.switch3.ethg$o[1].channel disabled false
par Red.switch3.ethg$o[1].channel delay 1e-07s
attr unit s
par Red.switch3.ethg$o[1].channel datarate 1e+07bps
attr unit bps
par Red.switch3.ethg$o[1].channel ber 0
par Red.switch3.ethg$o[1].channel per 0
par Red.host7.ethg$o.channel typename "\"red8.Red.cable\""
par Red.host7.ethg$o.channel disabled false
par Red.host7.ethg$o.channel delay 1e-07s
attr unit s
par Red.host7.ethg$o.channel datarate 1e+07bps
attr unit bps
par Red.host7.ethg$o.channel ber 0
par Red.host7.ethg$o.channel per 0
par Red.switch4.ethg$o[0].channel typename "\"red8.Red.cable\""
par Red.switch4.ethg$o[0].channel disabled false
par Red.switch4.ethg$o[0].channel delay 1e-07s
attr unit s
par Red.switch4.ethg$o[0].channel datarate 1e+07bps
attr unit bps
par Red.switch4.ethg$o[0].channel ber 0
par Red.switch4.ethg$o[0].channel per 0
par Red.host8.ethg$o.channel typename "\"red8.Red.cable\""
par Red.host8.ethg$o.channel disabled false
par Red.host8.ethg$o.channel delay 1e-07s
attr unit s
par Red.host8.ethg$o.channel datarate 1e+07bps
attr unit bps
par Red.host8.ethg$o.channel ber 0
par Red.host8.ethg$o.channel per 0
par Red.switch4.ethg$o[1].channel typename "\"red8.Red.cable\""
par Red.switch4.ethg$o[1].channel disabled false
par Red.switch4.ethg$o[1].channel delay 1e-07s
attr unit s
par Red.switch4.ethg$o[1].channel datarate 1e+07bps
attr unit bps
par Red.switch4.ethg$o[1].channel ber 0
par Red.switch4.ethg$o[1].channel per 0
par Red.switch1.ethg$o[2].channel typename "\"red8.Red.cable\""
par Red.switch1.ethg$o[2].channel disabled false
par Red.switch1.ethg$o[2].channel delay 1e-07s
attr unit s
par Red.switch1.ethg$o[2].channel datarate 1e+07bps
attr unit bps
par Red.switch1.ethg$o[2].channel ber 0
par Red.switch1.ethg$o[2].channel per 0
par Red.switch5.ethg$o[0].channel typename "\"red8.Red.cable\""
par Red.switch5.ethg$o[0].channel disabled false
par Red.switch5.ethg$o[0].channel delay 1e-07s
attr unit s
par Red.switch5.ethg$o[0].channel datarate 1e+07bps
attr unit bps
par Red.switch5.ethg$o[0].channel ber 0
par Red.switch5.ethg$o[0].channel per 0
par Red.switch2.ethg$o[2].channel typename "\"red8.Red.cable\""
par Red.switch2.ethg$o[2].channel disabled false
par Red.switch2.ethg$o[2].channel delay 1e-07s
attr unit s
par Red.switch2.ethg$o[2].channel datarate 1e+07bps
attr unit bps
par Red.switch2.ethg$o[2].channel ber 0
par Red.switch2.ethg$o[2].channel per 0
par Red.switch5.ethg$o[1].channel typename "\"red8.Red.cable\""
par Red.switch5.ethg$o[1].channel disabled false
par Red.switch5.ethg$o[1].channel delay 1e-07s
attr unit s
par Red.switch5.ethg$o[1].channel datarate 1e+07bps
attr unit bps
par Red.switch5.ethg$o[1].channel ber 0
par Red.switch5.ethg$o[1].channel per 0
par Red.switch3.ethg$o[2].channel typename "\"red8.Red.cable\""
par Red.switch3.ethg$o[2].channel disabled false
par Red.switch3.ethg$o[2].channel delay 1e-07s
attr unit s
par Red.switch3.ethg$o[2].channel datarate 1e+07bps
attr unit bps
par Red.switch3.ethg$o[2].channel ber 0
par Red.switch3.ethg$o[2].channel per 0
par Red.switch5.ethg$o[2].channel typename "\"red8.Red.cable\""
par Red.switch5.ethg$o[2].channel disabled false
par Red.switch5.ethg$o[2].channel delay 1e-07s
attr unit s
par Red.switch5.ethg$o[2].channel datarate 1e+07bps
attr unit bps
par Red.switch5.ethg$o[2].channel ber 0
par Red.switch5.ethg$o[2].channel per 0
par Red.switch4.ethg$o[2].channel typename "\"red8.Red.cable\""
par Red.switch4.ethg$o[2].channel disabled false
par Red.switch4.ethg$o[2].channel delay 1e-07s
attr unit s
par Red.switch4.ethg$o[2].channel datarate 1e+07bps
attr unit bps
par Red.switch4.ethg$o[2].channel ber 0
par Red.switch4.ethg$o[2].channel per 0
par Red.switch5.ethg$o[3].channel typename "\"red8.Red.cable\""
par Red.switch5.ethg$o[3].channel disabled false
par Red.switch5.ethg$o[3].channel delay 1e-07s
attr unit s
par Red.switch5.ethg$o[3].channel datarate 1e+07bps
attr unit bps
par Red.switch5.ethg$o[3].channel ber 0
par Red.switch5.ethg$o[3].channel per 0
par Red.host1.eth.phys$o.channel typename "\"ned.IdealChannel\""
par Red.host1.ethg$i.channel typename "\"ned.IdealChannel\""
par Red.host1.interfaceTable typename "\"inet.networklayer.common.InterfaceTable\""
par Red.host1.interfaceTable displayAddresses false
par Red.host1.cli typename "\"inet.applications.ethernet.EtherAppClient\""
par Red.host1.cli destAddress "\"host8\""
par Red.host1.cli startTime 0.548814s
attr unit s
par Red.host1.cli stopTime -1s
attr unit s
par Red.host1.cli localSAP 240
par Red.host1.cli remoteSAP 241
par Red.host1.cli sendInterval "uniform(0s, 1s)"
attr unit s
par Red.host1.cli reqLength 100B
attr unit B
par Red.host1.cli respLength 1024B
attr unit B
par Red.host1.cli stopOperationExtraTime -1s
attr unit s
par Red.host1.cli stopOperationTimeout 2s
attr unit s
scalar Red.host1.cli packetReceived:count 4
attr interpolationmode none
attr source packetReceived
attr title "packets received, count"
scalar Red.host1.cli packetReceived:sum(packetBytes) 4096
attr interpolationmode none
attr source packetReceived
attr title "packets received, sum(packetBytes)"
statistic Red.host1.cli endToEndDelay:histogram
field count 4
field mean 0.0033796
field stddev 0
field min 0.0033796
field max 0.0033796
field sum 0.0135184
field sqrsum 4.568678464e-05
attr interpolationmode none
attr source dataAge(packetReceived)
attr title "end-to-end delay, histogram"
attr unit s
bin	-inf	0
bin	0	4
bin	0.01	0
bin	0.02	0
bin	0.03	0
bin	0.04	0
bin	0.05	0
bin	0.06	0
bin	0.07	0
bin	0.08	0
bin	0.09	0
bin	0.1	0
bin	0.11	0
bin	0.12	0
bin	0.13	0
bin	0.14	0
bin	0.15	0
bin	0.16	0
bin	0.17	0
bin	0.18	0
bin	0.19	0
bin	0.2	0
bin	0.21	0
bin	0.22	0
bin	0.23	0
bin	0.24	0
bin	0.25	0
bin	0.26	0
bin	0.27	0
bin	0.28	0
bin	0.29	0
bin	0.3	0
bin	0.31	0
bin	0.32	0
bin	0.33	0
bin	0.34	0
bin	0.35	0
bin	0.36	0
bin	0.37	0
bin	0.38	0
bin	0.39	0
bin	0.4	0
bin	0.41	0
bin	0.42	0
bin	0.43	0
bin	0.44	0
bin	0.45	0
bin	0.46	0
bin	0.47	0
bin	0.48	0
bin	0.49	0
bin	0.5	0
bin	0.51	0
scalar Red.host1.cli packetSent:count 4
attr interpolationmode none
attr source packetSent
attr title "packets sent, count"
scalar Red.host1.cli packetSent:sum(packetBytes) 400
attr interpolationmode none
attr source packetSent
attr title "packets sent, sum(packetBytes)"
par Red.host1.srv typename "\"inet.applications.ethernet.EtherAppServer\""
par Red.host1.srv localSAP 241
par Red.host1.srv stopOperationExtraTime -1s
attr unit s
par Red.host1.srv stopOperationTimeout 2s
attr unit s
scalar Red.host1.srv packetReceived:count 0
attr interpolationmode none
attr source packetReceived
attr title "packets received, count"
scalar Red.host1.srv packetReceived:sum(packetBytes) 0
attr interpolationmode none
attr source packetReceived
attr title "packets received, sum(packetBytes)"
statistic Red.host1.srv endToEndDelay:histogram
field count 0
field mean -nan
field stddev -nan
field min -nan
field max -nan
field sum 0
field sqrsum 0
attr interpolationmode none
attr source dataAge(packetReceived)
attr title "end-to-end delay, histogram"
attr unit s
bin	-inf	0
bin	0	0
bin	1	0
scalar Red.host1.srv packetSent:count 0
attr interpolationmode none
attr source packetSent
attr title "packets sent, count"
scalar Red.host1.srv packetSent:sum(packetBytes) 0
attr interpolationmode none
attr source packetSent
attr title "packets sent, sum(packetBytes)"
par Red.host1.dp typename "\"inet.common.MessageDispatcher\""
par Red.host1.llc typename "\"inet.linklayer.ethernet.EtherEncap\""
par Red.host1.llc interfaceTableModule "\"Red.host1.interfaceTable\""
par Red.host1.llc useSNAP false
par Red.host1.llc fcsMode "\"declared\""
attr enum declared,computed
par Red.host1.llc registerProtocol true
par Red.host1.llc stopOperationExtraTime -1s
attr unit s
par Red.host1.llc stopOperationTimeout 2s
attr unit s
scalar Red.host1.llc pauseSent:count 0
attr title "pause sent, count"
scalar Red.host1.llc pauseSent:sum 0
attr title "pause sent, sum"
scalar Red.host1.llc decapPk:count 0
attr interpolationmode none
attr source decapPk
attr title "packets decapsulated, count"
scalar Red.host1.llc decapPk:sum(packetBytes) 0
attr interpolationmode none
attr source decapPk
attr title "packets decapsulated, sum(packetBytes)"
scalar Red.host1.llc encapPk:count 4
attr interpolationmode none
attr source encapPk
attr title "packets encapsulated, count"
scalar Red.host1.llc encapPk:sum(packetBytes) 400
attr interpolationmode none
attr source encapPk
attr title "packets encapsulated, sum(packetBytes)"
par Red.host1.eth.mac.phys$o.channel typename "\"ned.IdealChannel\""
par Red.host1.eth.phys$i.channel typename "\"ned.IdealChannel\""
par Red.host1.eth.encap.upperLayerOut.channel typename "\"ned.IdealChannel\""
par Red.host1.eth.upperLayerIn.channel typename "\"ned.IdealChannel\""
par Red.host1.eth.mac.queue typename "\"inet.linklayer.ethernet.EtherQueue\""
par Red.host1.eth.mac.queue displayStringTextFormat "\"contains %p pk (%l) pushed %u\\npopped %o removed %r dropped %d\""
par Red.host1.eth.mac.queue packetCapacity 10000
par Red.host1.eth.mac.queue dataCapacity -1b
attr unit b
par Red.host1.eth.mac.queue dropperClass "\"inet::queueing::PacketAtCollectionEndDropper\""
par Red.host1.eth.mac.queue comparatorClass "\"inet::EthernetFrameTypeComparator\""
par Red.host1.eth.mac.queue bufferModule "\"\""
scalar Red.host1.eth.mac.queue packetPopped:count 4
attr interpolationmode none
attr title "packet popped, count"
scalar Red.host1.eth.mac.queue packetPopped:sum(packetBytes) 484
attr interpolationmode none
attr title "packet popped, sum(packetBytes)"
statistic Red.host1.eth.mac.queue queueingTime:histogram
field count 4
field mean 0
field stddev 0
field min 0
field max 0
field sum 0
field sqrsum 0
attr interpolationmode none
attr source queueingTime(packetPopped)
attr title "queueing times, histogram"
attr unit s
bin	-inf	0
bin	-0.5	0
bin	-0.48	0
bin	-0.46	0
bin	-0.44	0
bin	-0.42	0
bin	-0.4	0
bin	-0.38	0
bin	-0.36	0
bin	-0.34	0
bin	-0.32	0
bin	-0.3	0
bin	-0.28	0
bin	-0.26	0
bin	-0.24	0
bin	-0.22	0
bin	-0.2	0
bin	-0.18	0
bin	-0.16	0
bin	-0.14	0
bin	-0.12	0
bin	-0.1	0
bin	-0.08	0
bin	-0.06	0
bin	-0.04	0
bin	-0.02	0
bin	0	4
bin	0.02	0
bin	0.04	0
bin	0.06	0
bin	0.08	0
bin	0.1	0
bin	0.12	0
bin	0.14	0
bin	0.16	0
bin	0.18	0
bin	0.2	0
bin	0.22	0
bin	0.24	0
bin	0.26	0
bin	0.28	0
bin	0.3	0
bin	0.32	0
bin	0.34	0
bin	0.36	0
bin	0.38	0
bin	0.4	0
bin	0.42	0
bin	0.44	0
bin	0.46	0
bin	0.48	0
bin	0.5	0
scalar Red.host1.eth.mac.queue queueLength:max 1
attr interpolationmode sample-hold
attr source "count(packetPushed) - count(packetPopped) - count(packetRemoved) - count(packetDropped)"
attr title "queue length, max"
scalar Red.host1.eth.mac.queue queueLength:timeavg 0
attr interpolationmode sample-hold
attr source "count(packetPushed) - count(packetPopped) - count(packetRemoved) - count(packetDropped)"
attr title "queue length, timeavg"
scalar Red.host1.eth.mac.queue packetPushed:count 4
attr interpolationmode none
attr title "packet pushed, count"
scalar Red.host1.eth.mac.queue packetPushed:sum(packetBytes) 484
attr interpolationmode none
attr title "packet pushed, sum(packetBytes)"
scalar Red.host1.eth.mac.queue packetDropQueueOverflow:count 0
attr interpolationmode none
attr source packetDropReasonIsQueueOverflow(packetDropped)
attr title "packet drops: queue overflow, count"
scalar Red.host1.eth.mac.queue packetDropQueueOverflow:sum(packetBytes) 0
attr interpolationmode none
attr source packetDropReasonIsQueueOverflow(packetDropped)
attr title "packet drops: queue overflow, sum(packetBytes)"
scalar Red.host1.eth.mac.queue packetRemoved:count 0
attr interpolationmode none
attr title "packets removed, count"
scalar Red.host1.eth.mac.queue packetRemoved:sum(packetBytes) 0
attr interpolationmode none
attr title "packets removed, sum(packetBytes)"
par Red.host1.eth.mac typename "\"inet.linklayer.ethernet.EtherMac\""
par Red.host1.eth.mac interfaceTableModule "\"Red.host1.interfaceTable\""
par Red.host1.eth.mac displayStringTextFormat "\"rate: %b\\nsent: %s, rcvd: %r\\nqueue: %q, drop: %d\""
par Red.host1.eth.mac sendRawBytes false
par Red.host1.eth.mac promiscuous false
par Red.host1.eth.mac duplexMode true
par Red.host1.eth.mac frameBursting true
par Red.host1.eth.mac mtu 1500B
attr unit B
par Red.host1.eth.mac stopOperationExtraTime -1s
attr unit s
par Red.host1.eth.mac stopOperationTimeout 2s
attr unit s
scalar Red.host1.eth.mac "simulated time" 2
scalar Red.host1.eth.mac full-duplex 1
scalar Red.host1.eth.mac "frames/sec sent" 2
scalar Red.host1.eth.mac "frames/sec rcvd" 2
scalar Red.host1.eth.mac "bits/sec sent" 1936
scalar Red.host1.eth.mac "bits/sec rcvd" 16720
scalar Red.host1.eth.mac "rx channel idle (%)" 99.82636
scalar Red.host1.eth.mac "rx channel utilization (%)" 0.17364
scalar Red.host1.eth.mac "rx channel collision (%)" 0
scalar Red.host1.eth.mac collisions 0
scalar Red.host1.eth.mac backoffs 0
scalar Red.host1.eth.mac rxPausePkUnits:count 0
attr interpolationmode none
attr title "pause units received, count"
scalar Red.host1.eth.mac rxPausePkUnits:sum 0
attr interpolationmode none
attr title "pause units received, sum"
scalar Red.host1.eth.mac txPausePkUnits:count 0
attr interpolationmode none
attr title "pause units sent, count"
scalar Red.host1.eth.mac txPausePkUnits:sum 0
attr interpolationmode none
attr title "pause units sent, sum"
scalar Red.host1.eth.mac rxPkOk:count 4
attr interpolationmode none
attr source rxPkOk
attr title "packets received OK, count"
scalar Red.host1.eth.mac rxPkOk:sum(packetBytes) 4180
attr interpolationmode none
attr source rxPkOk
attr title "packets received OK, sum(packetBytes)"
scalar Red.host1.eth.mac backoffSlotsGenerated:count 0
attr interpolationmode none
attr title "backoff, count"
scalar Red.host1.eth.mac collision:count 0
attr interpolationmode none
attr title "collision, count"
scalar Red.host1.eth.mac txPk:count 4
attr interpolationmode none
attr source packetSentToLower
attr title "packets transmitted, count"
scalar Red.host1.eth.mac txPk:sum(packetBytes) 484
attr interpolationmode none
attr source packetSentToLower
attr title "packets transmitted, sum(packetBytes)"
scalar Red.host1.eth.mac packetReceivedFromUpper:count 4
attr interpolationmode none
attr source packetReceivedFromUpper
attr title "packet bytes from higher layer, count"
scalar Red.host1.eth.mac packetReceivedFromUpper:sum(packetBytes) 484
attr interpolationmode none
attr source packetReceivedFromUpper
attr title "packet bytes from higher layer, sum(packetBytes)"
scalar Red.host1.eth.mac passedUpPk:count 4
attr interpolationmode none
attr source packetSentToUpper
attr title "packets passed to higher layer, count"
scalar Red.host1.eth.mac passedUpPk:sum(packetBytes) 4180
attr interpolationmode none
attr source packetSentToUpper
attr title "packets passed to higher layer, sum(packetBytes)"
scalar Red.host1.eth.mac packetDropIncorrectlyReceived:count 0
attr interpolationmode none
attr source packetDropReasonIsIncorrectlyReceived(packetDropped)
attr title "packet drop: incorrectly received, count"
scalar Red.host1.eth.mac packetDropIncorrectlyReceived:sum(packetBytes) 0
attr interpolationmode none
attr source packetDropReasonIsIncorrectlyReceived(packetDropped)
attr title "packet drop: incorrectly received, sum(packetBytes)"
scalar Red.host1.eth.mac packetDropInterfaceDown:count 0
attr interpolationmode none
attr source packetDropReasonIsInterfaceDown(packetDropped)
attr title "packet drop: interface down, count"
scalar Red.host1.eth.mac packetDropInterfaceDown:sum(packetBytes) 0
attr interpolationmode none
attr source packetDropReasonIsInterfaceDown(packetDropped)
attr title "packet drop: interface down, sum(packetBytes)"
scalar Red.host1.eth.mac packetDropNotAddressedToUs:count 1
attr interpolationmode none
attr source packetDropReasonIsNotAddressedToUs(packetDropped)
attr title "packet drop: not addressed to us, count"
scalar Red.host1.eth.mac packetDropNotAddressedToUs:sum(packetBytes) 121
attr interpolationmode none
attr source packetDropReasonIsNotAddressedToUs(packetDropped)
attr title "packet drop: not addressed to us, sum(packetBytes)"
par Red.host1.eth.encap typename "\"inet.linklayer.ethernet.EtherEncapDummy\""
par Red.host1.eth typename "\"inet.linklayer.ethernet.EthernetInterface\""
par Red.host1.eth displayStringTextFormat "\"%a (%i)\\n%m\""
par Red.host1.eth interfaceTableModule "\"Red.host1.interfaceTable\""
par Red.host1.eth address "\"auto\""
par Red.host1.eth csmacdSupport true
par Red.host1.eth fcsMode "\"declared\""
attr enum declared,computed
par Red.host1 typename "\"inet.node.ethernet.EtherHost\""
par Red.host1 hasStatus false
par Red.host1 csmacdSupport true
par Red.host1 fcsMode "\"declared\""
attr enum declared,computed
par Red.host2.eth.phys$o.channel typename "\"ned.IdealChannel\""
par Red.host2.ethg$i.channel typename "\"ned.IdealChannel\""
par Red.host2.interfaceTable typename "\"inet.networklayer.common.InterfaceTable\""
par Red.host2.interfaceTable displayAddresses false
par Red.host2.cli typename "\"inet.applications.ethernet.EtherAppClient\""
par Red.host2.cli destAddress "\"\""
par Red.host2.cli startTime 0.592845s
attr unit s
par Red.host2.cli stopTime -1s
attr unit s
par Red.host2.cli localSAP 240
par Red.host2.cli remoteSAP 241
par Red.host2.cli sendInterval "uniform(0s, 1s)"
attr unit s
par Red.host2.cli reqLength 100B
attr unit B
par Red.host2.cli respLength 1024B
attr unit B
par Red.host2.cli stopOperationExtraTime -1s
attr unit s
par Red.host2.cli stopOperationTimeout 2s
attr unit s
scalar Red.host2.cli packetReceived:count 0
attr interpolationmode none
attr source packetReceived
attr title "packets received, count"
scalar Red.host2.cli packetReceived:sum(packetBytes) 0
attr interpolationmode none
attr source packetReceived
attr title "packets received, sum(packetBytes)"
statistic Red.host2.cli endToEndDelay:histogram
field count 0
field mean -nan
field stddev -nan
field min -nan
field max -nan
field sum 0
field sqrsum 0
attr interpolationmode none
attr source dataAge(packetReceived)
attr title "end-to-end delay, histogram"
attr unit s
bin	-inf	0
bin	0	0
bin	1	0
scalar Red.host2.cli packetSent:count 0
attr interpolationmode none
attr source packetSent
attr title "packets sent, count"
scalar Red.host2.cli packetSent:sum(packetBytes) 0
attr interpolationmode none
attr source packetSent
attr title "packets sent, sum(packetBytes)"
par Red.host2.srv typename "\"inet.applications.ethernet.EtherAppServer\""
par Red.host2.srv localSAP 241
par Red.host2.srv stopOperationExtraTime -1s
attr unit s
par Red.host2.srv stopOperationTimeout 2s
attr unit s
scalar Red.host2.srv packetReceived:count 0
attr interpolationmode none
attr source packetReceived
attr title "packets received, count"
scalar Red.host2.srv packetReceived:sum(packetBytes) 0
attr interpolationmode none
attr source packetReceived
attr title "packets received, sum(packetBytes)"
statistic Red.host2.srv endToEndDelay:histogram
field count 0
field mean -nan
field stddev -nan
field min -nan
field max -nan
field sum 0
field sqrsum 0
attr interpolationmode none
attr source dataAge(packetReceived)
attr title "end-to-end delay, histogram"
attr unit s
bin	-inf	0
bin	0	0
bin	1	0
scalar Red.host2.srv packetSent:count 0
attr interpolationmode none
attr source packetSent
attr title "packets sent, count"
scalar Red.host2.srv packetSent:sum(packetBytes) 0
attr interpolationmode none
attr source packetSent
attr title "packets sent, sum(packetBytes)"
par Red.host2.dp typename "\"inet.common.MessageDispatcher\""
par Red.host2.llc typename "\"inet.linklayer.ethernet.EtherEncap\""
par Red.host2.llc interfaceTableModule "\"Red.host2.interfaceTable\""
par Red.host2.llc useSNAP false
par Red.host2.llc fcsMode "\"declared\""
attr enum declared,computed
par Red.host2.llc registerProtocol true
par Red.host2.llc stopOperationExtraTime -1s
attr unit s
par Red.host2.llc stopOperationTimeout 2s
attr unit s
scalar Red.host2.llc pauseSent:count 0
attr title "pause sent, count"
scalar Red.host2.llc pauseSent:sum 0
attr title "pause sent, sum"
scalar Red.host2.llc decapPk:count 0
attr interpolationmode none
attr source decapPk
attr title "packets decapsulated, count"
scalar Red.host2.llc decapPk:sum(packetBytes) 0
attr interpolationmode none
attr source decapPk
attr title "packets decapsulated, sum(packetBytes)"
scalar Red.host2.llc encapPk:count 0
attr interpolationmode none
attr source encapPk
attr title "packets encapsulated, count"
scalar Red.host2.llc encapPk:sum(packetBytes) 0
attr interpolationmode none
attr source encapPk
attr title "packets encapsulated, sum(packetBytes)"
par Red.host2.eth.mac.phys$o.channel typename "\"ned.IdealChannel\""
par Red.host2.eth.phys$i.channel typename "\"ned.IdealChannel\""
par Red.host2.eth.encap.upperLayerOut.channel typename "\"ned.IdealChannel\""
par Red.host2.eth.upperLayerIn.channel typename "\"ned.IdealChannel\""
par Red.host2.eth.mac.queue typename "\"inet.linklayer.ethernet.EtherQueue\""
par Red.host2.eth.mac.queue displayStringTextFormat "\"contains %p pk (%l) pushed %u\\npopped %o removed %r dropped %d\""
par Red.host2.eth.mac.queue packetCapacity 10000
par Red.host2.eth.mac.queue dataCapacity -1b
attr unit b
par Red.host2.eth.mac.queue dropperClass "\"inet::queueing::PacketAtCollectionEndDropper\""
par Red.host2.eth.mac.queue comparatorClass "\"inet::EthernetFrameTypeComparator\""
par Red.host2.eth.mac.queue bufferModule "\"\""
scalar Red.host2.eth.mac.queue packetPopped:count 0
attr interpolationmode none
attr title "packet popped, count"
scalar Red.host2.eth.mac.queue packetPopped:sum(packetBytes) 0
attr interpolationmode none
attr title "packet popped, sum(packetBytes)"
statistic Red.host2.eth.mac.queue queueingTime:histogram
field count 0
field mean -nan
field stddev -nan
field min -nan
field max -nan
field sum 0
field sqrsum 0
attr interpolationmode none
attr source queueingTime(packetPopped)
attr title "queueing times, histogram"
attr unit s
bin	-inf	0
bin	0	0
bin	1	0
scalar Red.host2.eth.mac.queue queueLength:max -nan
attr interpolationmode sample-hold
attr source "count(packetPushed) - count(packetPopped) - count(packetRemoved) - count(packetDropped)"
attr title "queue length, max"
scalar Red.host2.eth.mac.queue queueLength:timeavg -nan
attr interpolationmode sample-hold
attr source "count(packetPushed) - count(packetPopped) - count(packetRemoved) - count(packetDropped)"
attr title "queue length, timeavg"
scalar Red.host2.eth.mac.queue packetPushed:count 0
attr interpolationmode none
attr title "packet pushed, count"
scalar Red.host2.eth.mac.queue packetPushed:sum(packetBytes) 0
attr interpolationmode none
attr title "packet pushed, sum(packetBytes)"
scalar Red.host2.eth.mac.queue packetDropQueueOverflow:count 0
attr interpolationmode none
attr source packetDropReasonIsQueueOverflow(packetDropped)
attr title "packet drops: queue overflow, count"
scalar Red.host2.eth.mac.queue packetDropQueueOverflow:sum(packetBytes) 0
attr interpolationmode none
attr source packetDropReasonIsQueueOverflow(packetDropped)
attr title "packet drops: queue overflow, sum(packetBytes)"
scalar Red.host2.eth.mac.queue packetRemoved:count 0
attr interpolationmode none
attr title "packets removed, count"
scalar Red.host2.eth.mac.queue packetRemoved:sum(packetBytes) 0
attr interpolationmode none
attr title "packets removed, sum(packetBytes)"
par Red.host2.eth.mac typename "\"inet.linklayer.ethernet.EtherMac\""
par Red.host2.eth.mac interfaceTableModule "\"Red.host2.interfaceTable\""
par Red.host2.eth.mac displayStringTextFormat "\"rate: %b\\nsent: %s, rcvd: %r\\nqueue: %q, drop: %d\""
par Red.host2.eth.mac sendRawBytes false
par Red.host2.eth.mac promiscuous false
par Red.host2.eth.mac duplexMode true
par Red.host2.eth.mac frameBursting true
par Red.host2.eth.mac mtu 1500B
attr unit B
par Red.host2.eth.mac stopOperationExtraTime -1s
attr unit s
par Red.host2.eth.mac stopOperationTimeout 2s
attr unit s
scalar Red.host2.eth.mac "simulated time" 2
scalar Red.host2.eth.mac full-duplex 1
scalar Red.host2.eth.mac "frames/sec sent" 0
scalar Red.host2.eth.mac "frames/sec rcvd" 0
scalar Red.host2.eth.mac "bits/sec sent" 0
scalar Red.host2.eth.mac "bits/sec rcvd" 0
scalar Red.host2.eth.mac "rx channel idle (%)" 99.98968
scalar Red.host2.eth.mac "rx channel utilization (%)" 0.01032
scalar Red.host2.eth.mac "rx channel collision (%)" 0
scalar Red.host2.eth.mac collisions 0
scalar Red.host2.eth.mac backoffs 0
scalar Red.host2.eth.mac rxPausePkUnits:count 0
attr interpolationmode none
attr title "pause units received, count"
scalar Red.host2.eth.mac rxPausePkUnits:sum 0
attr interpolationmode none
attr title "pause units received, sum"
scalar Red.host2.eth.mac txPausePkUnits:count 0
attr interpolationmode none
attr title "pause units sent, count"
scalar Red.host2.eth.mac txPausePkUnits:sum 0
attr interpolationmode none
attr title "pause units sent, sum"
scalar Red.host2.eth.mac rxPkOk:count 0
attr interpolationmode none
attr source rxPkOk
attr title "packets received OK, count"
scalar Red.host2.eth.mac rxPkOk:sum(packetBytes) 0
attr interpolationmode none
attr source rxPkOk
attr title "packets received OK, sum(packetBytes)"
scalar Red.host2.eth.mac backoffSlotsGenerated:count 0
attr interpolationmode none
attr title "backoff, count"
scalar Red.host2.eth.mac collision:count 0
attr interpolationmode none
attr title "collision, count"
scalar Red.host2.eth.mac txPk:count 0
attr interpolationmode none
attr source packetSentToLower
attr title "packets transmitted, count"
scalar Red.host2.eth.mac txPk:sum(packetBytes) 0
attr interpolationmode none
attr source packetSentToLower
attr title "packets transmitted, sum(packetBytes)"
scalar Red.host2.eth.mac packetReceivedFromUpper:count 0
attr interpolationmode none
attr source packetReceivedFromUpper
attr title "packet bytes from higher layer, count"
scalar Red.host2.eth.mac packetReceivedFromUpper:sum(packetBytes) 0
attr interpolationmode none
attr source packetReceivedFromUpper
attr title "packet bytes from higher layer, sum(packetBytes)"
scalar Red.host2.eth.mac passedUpPk:count 0
attr interpolationmode none
attr source packetSentToUpper
attr title "packets passed to higher layer, count"
scalar Red.host2.eth.mac passedUpPk:sum(packetBytes) 0
attr interpolationmode none
attr source packetSentToUpper
attr title "packets passed to higher layer, sum(packetBytes)"
scalar Red.host2.eth.mac packetDropIncorrectlyReceived:count 0
attr interpolationmode none
attr source packetDropReasonIsIncorrectlyReceived(packetDropped)
attr title "packet drop: incorrectly received, count"
scalar Red.host2.eth.mac packetDropIncorrectlyReceived:sum(packetBytes) 0
attr interpolationmode none
attr source packetDropReasonIsIncorrectlyReceived(packetDropped)
attr title "packet drop: incorrectly received, sum(packetBytes)"
scalar Red.host2.eth.mac packetDropInterfaceDown:count 0
attr interpolationmode none
attr source packetDropReasonIsInterfaceDown(packetDropped)
attr title "packet drop: interface down, count"
scalar Red.host2.eth.mac packetDropInterfaceDown:sum(packetBytes) 0
attr interpolationmode none
attr source packetDropReasonIsInterfaceDown(packetDropped)
attr title "packet drop: interface down, sum(packetBytes)"
scalar Red.host2.eth.mac packetDropNotAddressedToUs:count 2
attr interpolationmode none
attr source packetDropReasonIsNotAddressedToUs(packetDropped)
attr title "packet drop: not addressed to us, count"
scalar Red.host2.eth.mac packetDropNotAddressedToUs:sum(packetBytes) 242
attr interpolationmode none
attr source packetDropReasonIsNotAddressedToUs(packetDropped)
attr title "packet drop: not addressed to us, sum(packetBytes)"
par Red.host2.eth.encap typename "\"inet.linklayer.ethernet.EtherEncapDummy\""
par Red.host2.eth typename "\"inet.linklayer.ethernet.EthernetInterface\""
par Red.host2.eth displayStringTextFormat "\"%a (%i)\\n%m\""
par Red.host2.eth interfaceTableModule "\"Red.host2.interfaceTable\""
par Red.host2.eth address "\"auto\""
par Red.host2.eth csmacdSupport true
par Red.host2.eth fcsMode "\"declared\""
attr enum declared,computed
par Red.host2 typename "\"inet.node.ethernet.EtherHost\""
par Red.host2 hasStatus false
par Red.host2 csmacdSupport true
par Red.host2 fcsMode "\"declared\""
attr enum declared,computed
par Red.host3.eth.phys$o.channel typename "\"ned.IdealChannel\""
par Red.host3.ethg$i.channel typename "\"ned.IdealChannel\""
par Red.host3.interfaceTable typename "\"inet.networklayer.common.InterfaceTable\""
par Red.host3.interfaceTable displayAddresses false
par Red.host3.cli typename "\"inet.applications.ethernet.EtherAppClient\""
par Red.host3.cli destAddress "\"\""
par Red.host3.cli startTime 0.715189s
attr unit s
par Red.host3.cli stopTime -1s
attr unit s
par Red.host3.cli localSAP 240
par Red.host3.cli remoteSAP 241
par Red.host3.cli sendInterval "uniform(0s, 1s)"
attr unit s
par Red.host3.cli reqLength 100B
attr unit B
par Red.host3.cli respLength 1024B
attr unit B
par Red.host3.cli stopOperationExtraTime -1s
attr unit s
par Red.host3.cli stopOperationTimeout 2s
attr unit s
scalar Red.host3.cli packetReceived:count 0
attr interpolationmode none
attr source packetReceived
attr title "packets received, count"
scalar Red.host3.cli packetReceived:sum(packetBytes) 0
attr interpolationmode none
attr source packetReceived
attr title "packets received, sum(packetBytes)"
statistic Red.host3.cli endToEndDelay:histogram
field count 0
field mean -nan
field stddev -nan
field min -nan
field max -nan
field sum 0
field sqrsum 0
attr interpolationmode none
attr source dataAge(packetReceived)
attr title "end-to-end delay, histogram"
attr unit s
bin	-inf	0
bin	0	0
bin	1	0
scalar Red.host3.cli packetSent:count 0
attr interpolationmode none
attr source packetSent
attr title "packets sent, count"
scalar Red.host3.cli packetSent:sum(packetBytes) 0
attr interpolationmode none
attr source packetSent
attr title "packets sent, sum(packetBytes)"
par Red.host3.srv typename "\"inet.applications.ethernet.EtherAppServer\""
par Red.host3.srv localSAP 241
par Red.host3.srv stopOperationExtraTime -1s
attr unit s
par Red.host3.srv stopOperationTimeout 2s
attr unit s
scalar Red.host3.srv packetReceived:count 0
attr interpolationmode none
attr source packetReceived
attr title "packets received, count"
scalar Red.host3.srv packetReceived:sum(packetBytes) 0
attr interpolationmode none
attr source packetReceived
attr title "packets received, sum(packetBytes)"
statistic Red.host3.srv endToEndDelay:histogram
field count 0
field mean -nan
field stddev -nan
field min -nan
field max -nan
field sum 0
field sqrsum 0
attr interpolationmode none
attr source dataAge(packetReceived)
attr title "end-to-end delay, histogram"
attr unit s
bin	-inf	0
bin	0	0
bin	1	0
scalar Red.host3.srv packetSent:count 0
attr interpolationmode none
attr source packetSent
attr title "packets sent, count"
scalar Red.host3.srv packetSent:sum(packetBytes) 0
attr interpolationmode none
attr source packetSent
attr title "packets sent, sum(packetBytes)"
par Red.host3.dp typename "\"inet.common.MessageDispatcher\""
par Red.host3.llc typename "\"inet.linklayer.ethernet.EtherEncap\""
par Red.host3.llc interfaceTableModule "\"Red.host3.interfaceTable\""
par Red.host3.llc useSNAP false
par Red.host3.llc fcsMode "\"declared\""
attr enum declared,computed
par Red.host3.llc registerProtocol true
par Red.host3.llc stopOperationExtraTime -1s
attr unit s
par Red.host3.llc stopOperationTimeout 2s
attr unit s
scalar Red.host3.llc pauseSent:count 0
attr title "pause sent, count"
scalar Red.host3.llc pauseSent:sum 0
attr title "pause sent, sum"
scalar Red.host3.llc decapPk:count 0
attr interpolationmode none
attr source decapPk
attr title "packets decapsulated, count"
scalar Red.host3.llc decapPk:sum(packetBytes) 0
attr interpolationmode none
attr source decapPk
attr title "packets decapsulated, sum(packetBytes)"
scalar Red.host3.llc encapPk:count 0
attr interpolationmode none
attr source encapPk
attr title "packets encapsulated, count"
scalar Red.host3.llc encapPk:sum(packetBytes) 0
attr interpolationmode none
attr source encapPk
attr title "packets encapsulated, sum(packetBytes)"
par Red.host3.eth.mac.phys$o.channel typename "\"ned.IdealChannel\""
par Red.host3.eth.phys$i.channel typename "\"ned.IdealChannel\""
par Red.host3.eth.encap.upperLayerOut.channel typename "\"ned.IdealChannel\""
par Red.host3.eth.upperLayerIn.channel typename "\"ned.IdealChannel\""
par Red.host3.eth.mac.queue typename "\"inet.linklayer.ethernet.EtherQueue\""
par Red.host3.eth.mac.queue displayStringTextFormat "\"contains %p pk (%l) pushed %u\\npopped %o removed %r dropped %d\""
par Red.host3.eth.mac.queue packetCapacity 10000
par Red.host3.eth.mac.queue dataCapacity -1b
attr unit b
par Red.host3.eth.mac.queue dropperClass "\"inet::queueing::PacketAtCollectionEndDropper\""
par Red.host3.eth.mac.queue comparatorClass "\"inet::EthernetFrameTypeComparator\""
par Red.host3.eth.mac.queue bufferModule "\"\""
scalar Red.host3.eth.mac.queue packetPopped:count 0
attr interpolationmode none
attr title "packet popped, count"
scalar Red.host3.eth.mac.queue packetPopped:sum(packetBytes) 0
attr interpolationmode none
attr title "packet popped, sum(packetBytes)"
statistic Red.host3.eth.mac.queue queueingTime:histogram
field count 0
field mean -nan
field stddev -nan
field min -nan
field max -nan
field sum 0
field sqrsum 0
attr interpolationmode none
attr source queueingTime(packetPopped)
attr title "queueing times, histogram"
attr unit s
bin	-inf	0
bin	0	0
bin	1	0
scalar Red.host3.eth.mac.queue queueLength:max -nan
attr interpolationmode sample-hold
attr source "count(packetPushed) - count(packetPopped) - count(packetRemoved) - count(packetDropped)"
attr title "queue length, max"
scalar Red.host3.eth.mac.queue queueLength:timeavg -nan
attr interpolationmode sample-hold
attr source "count(packetPushed) - count(packetPopped) - count(packetRemoved) - count(packetDropped)"
attr title "queue length, timeavg"
scalar Red.host3.eth.mac.queue packetPushed:count 0
attr interpolationmode none
attr title "packet pushed, count"
scalar Red.host3.eth.mac.queue packetPushed:sum(packetBytes) 0
attr interpolationmode none
attr title "packet pushed, sum(packetBytes)"
scalar Red.host3.eth.mac.queue packetDropQueueOverflow:count 0
attr interpolationmode none
attr source packetDropReasonIsQueueOverflow(packetDropped)
attr title "packet drops: queue overflow, count"
scalar Red.host3.eth.mac.queue packetDropQueueOverflow:sum(packetBytes) 0
attr interpolationmode none
attr source packetDropReasonIsQueueOverflow(packetDropped)
attr title "packet drops: queue overflow, sum(packetBytes)"
scalar Red.host3.eth.mac.queue packetRemoved:count 0
attr interpolationmode none
attr title "packets removed, count"
scalar Red.host3.eth.mac.queue packetRemoved:sum(packetBytes) 0
attr interpolationmode none
attr title "packets removed, sum(packetBytes)"
par Red.host3.eth.mac typename "\"inet.linklayer.ethernet.EtherMac\""
par Red.host3.eth.mac interfaceTableModule "\"Red.host3.interfaceTable\""
par Red.host3.eth.mac displayStringTextFormat "\"rate: %b\\nsent: %s, rcvd: %r\\nqueue: %q, drop: %d\""
par Red.host3.eth.mac sendRawBytes false
par Red.host3.eth.mac promiscuous false
par Red.host3.eth.mac duplexMode true
par Red.host3.eth.mac frameBursting true
par Red.host3.eth.mac mtu 1500B
attr unit B
par Red.host3.eth.mac stopOperationExtraTime -1s
attr unit s
par Red.host3.eth.mac stopOperationTimeout 2s
attr unit s
scalar Red.host3.eth.mac "simulated time" 2
scalar Red.host3.eth.mac full-duplex 1
scalar Red.host3.eth.mac "frames/sec sent" 0
scalar Red.host3.eth.mac "frames/sec rcvd" 0
scalar Red.host3.eth.mac "bits/sec sent" 0
scalar Red.host3.eth.mac "bits/sec rcvd" 0
scalar Red.host3.eth.mac "rx channel idle (%)" 99.98968
scalar Red.host3.eth.mac "rx channel utilization (%)" 0.01032
scalar Red.host3.eth.mac "rx channel collision (%)" 0
scalar Red.host3.eth.mac collisions 0
scalar Red.host3.eth.mac backoffs 0
scalar Red.host3.eth.mac rxPausePkUnits:count 0
attr interpolationmode none
attr title "pause units received, count"
scalar Red.host3.eth.mac rxPausePkUnits:sum 0
attr interpolationmode none
attr title "pause units received, sum"
scalar Red.host3.eth.mac txPausePkUnits:count 0
attr interpolationmode none
attr title "pause units sent, count"
scalar Red.host3.eth.mac txPausePkUnits:sum 0
attr interpolationmode none
attr title "pause units sent, sum"
scalar Red.host3.eth.mac rxPkOk:count 0
attr interpolationmode none
attr source rxPkOk
attr title "packets received OK, count"
scalar Red.host3.eth.mac rxPkOk:sum(packetBytes) 0
attr interpolationmode none
attr source rxPkOk
attr title "packets received OK, sum(packetBytes)"
scalar Red.host3.eth.mac backoffSlotsGenerated:count 0
attr interpolationmode none
attr title "backoff, count"
scalar Red.host3.eth.mac collision:count 0
attr interpolationmode none
attr title "collision, count"
scalar Red.host3.eth.mac txPk:count 0
attr interpolationmode none
attr source packetSentToLower
attr title "packets transmitted, count"
scalar Red.host3.eth.mac txPk:sum(packetBytes) 0
attr interpolationmode none
attr source packetSentToLower
attr title "packets transmitted, sum(packetBytes)"
scalar Red.host3.eth.mac packetReceivedFromUpper:count 0
attr interpolationmode none
attr source packetReceivedFromUpper
attr title "packet bytes from higher layer, count"
scalar Red.host3.eth.mac packetReceivedFromUpper:sum(packetBytes) 0
attr interpolationmode none
attr source packetReceivedFromUpper
attr title "packet bytes from higher layer, sum(packetBytes)"
scalar Red.host3.eth.mac passedUpPk:count 0
attr interpolationmode none
attr source packetSentToUpper
attr title "packets passed to higher layer, count"
scalar Red.host3.eth.mac passedUpPk:sum(packetBytes) 0
attr interpolationmode none
attr source packetSentToUpper
attr title "packets passed to higher layer, sum(packetBytes)"
scalar Red.host3.eth.mac packetDropIncorrectlyReceived:count 0
attr interpolationmode none
attr source packetDropReasonIsIncorrectlyReceived(packetDropped)
attr title "packet drop: incorrectly received, count"
scalar Red.host3.eth.mac packetDropIncorrectlyReceived:sum(packetBytes) 0
attr interpolationmode none
attr source packetDropReasonIsIncorrectlyReceived(packetDropped)
attr title "packet drop: incorrectly received, sum(packetBytes)"
scalar Red.host3.eth.mac packetDropInterfaceDown:count 0
attr interpolationmode none
attr source packetDropReasonIsInterfaceDown(packetDropped)
attr title "packet drop: interface down, count"
scalar Red.host3.eth.mac packetDropInterfaceDown:sum(packetBytes) 0
attr interpolationmode none
attr source packetDropReasonIsInterfaceDown(packetDropped)
attr title "packet drop: interface down, sum(packetBytes)"
scalar Red.host3.eth.mac packetDropNotAddressedToUs:count 2
attr interpolationmode none
attr source packetDropReasonIsNotAddressedToUs(packetDropped)
attr title "packet drop: not addressed to us, count"
scalar Red.host3.eth.mac packetDropNotAddressedToUs:sum(packetBytes) 242
attr interpolationmode none
attr source packetDropReasonIsNotAddressedToUs(packetDropped)
attr title "packet drop: not addressed to us, sum(packetBytes)"
par Red.host3.eth.encap typename "\"inet.linklayer.ethernet.EtherEncapDummy\""
par Red.host3.eth typename "\"inet.linklayer.ethernet.EthernetInterface\""
par Red.host3.eth displayStringTextFormat "\"%a (%i)\\n%m\""
par Red.host3.eth interfaceTableModule "\"Red.host3.interfaceTable\""
par Red.host3.eth address "\"auto\""
par Red.host3.eth csmacdSupport true
par Red.host3.eth fcsMode "\"declared\""
attr enum declared,computed
par Red.host3 typename "\"inet.node.ethernet.EtherHost\""
par Red.host3 hasStatus false
par Red.host3 csmacdSupport true
par Red.host3 fcsMode "\"declared\""
attr enum declared,computed
par Red.host4.eth.phys$o.channel typename "\"ned.IdealChannel\""
par Red.host4.ethg$i.channel typename "\"ned.IdealChannel\""
par Red.host4.interfaceTable typename "\"inet.networklayer.common.InterfaceTable\""
par Red.host4.interfaceTable displayAddresses false
par Red.host4.cli typename "\"inet.applications.ethernet.EtherAppClient\""
par Red.host4.cli destAddress "\"host5\""
par Red.host4.cli startTime 0.844266s
attr unit s
par Red.host4.cli stopTime -1s
attr unit s
par Red.host4.cli localSAP 240
par Red.host4.cli remoteSAP 241
par Red.host4.cli sendInterval "uniform(0s, 1s)"
attr unit s
par Red.host4.cli reqLength 100B
attr unit B
par Red.host4.cli respLength 1024B
attr unit B
par Red.host4.cli stopOperationExtraTime -1s
attr unit s
par Red.host4.cli stopOperationTimeout 2s
attr unit s
scalar Red.host4.cli packetReceived:count 4
attr interpolationmode none
attr source packetReceived
attr title "packets received, count"
scalar Red.host4.cli packetReceived:sum(packetBytes) 4096
attr interpolationmode none
attr source packetReceived
attr title "packets received, sum(packetBytes)"
statistic Red.host4.cli endToEndDelay:histogram
field count 4
field mean 0.0033796
field stddev 0
field min 0.0033796
field max 0.0033796
field sum 0.0135184
field sqrsum 4.568678464e-05
attr interpolationmode none
attr source dataAge(packetReceived)
attr title "end-to-end delay, histogram"
attr unit s
bin	-inf	0
bin	0	4
bin	0.01	0
bin	0.02	0
bin	0.03	0
bin	0.04	0
bin	0.05	0
bin	0.06	0
bin	0.07	0
bin	0.08	0
bin	0.09	0
bin	0.1	0
bin	0.11	0
bin	0.12	0
bin	0.13	0
bin	0.14	0
bin	0.15	0
bin	0.16	0
bin	0.17	0
bin	0.18	0
bin	0.19	0
bin	0.2	0
bin	0.21	0
bin	0.22	0
bin	0.23	0
bin	0.24	0
bin	0.25	0
bin	0.26	0
bin	0.27	0
bin	0.28	0
bin	0.29	0
bin	0.3	0
bin	0.31	0
bin	0.32	0
bin	0.33	0
bin	0.34	0
bin	0.35	0
bin	0.36	0
bin	0.37	0
bin	0.38	0
bin	0.39	0
bin	0.4	0
bin	0.41	0
bin	0.42	0
bin	0.43	0
bin	0.44	0
bin	0.45	0
bin	0.46	0
bin	0.47	0
bin	0.48	0
bin	0.49	0
bin	0.5	0
bin	0.51	0
scalar Red.host4.cli packetSent:count 4
attr interpolationmode none
attr source packetSent
attr title "packets sent, count"
scalar Red.host4.cli packetSent:sum(packetBytes) 400
attr interpolationmode none
attr source packetSent
attr title "packets sent, sum(packetBytes)"
par Red.host4.srv typename "\"inet.applications.ethernet.EtherAppServer\""
par Red.host4.srv localSAP 241
par Red.host4.srv stopOperationExtraTime -1s
attr unit s
par Red.host4.srv stopOperationTimeout 2s
attr unit s
scalar Red.host4.srv packetReceived:count 0
attr interpolationmode none
attr source packetReceived
attr title "packets received, count"
scalar Red.host4.srv packetReceived:sum(packetBytes) 0
attr interpolationmode none
attr source packetReceived
attr title "packets received, sum(packetBytes)"
statistic Red.host4.srv endToEndDelay:histogram
field count 0
field mean -nan
field stddev -nan
field min -nan
field max -nan
field sum 0
field sqrsum 0
attr interpolationmode none
attr source dataAge(packetReceived)
attr title "end-to-end delay, histogram"
attr unit s
bin	-inf	0
bin	0	0
bin	1	0
scalar Red.host4.srv packetSent:count 0
attr interpolationmode none
attr source packetSent
attr title "packets sent, count"
scalar Red.host4.srv packetSent:sum(packetBytes) 0
attr interpolationmode none
attr source packetSent
attr title "packets sent, sum(packetBytes)"
par Red.host4.dp typename "\"inet.common.MessageDispatcher\""
par Red.host4.llc typename "\"inet.linklayer.ethernet.EtherEncap\""
par Red.host4.llc interfaceTableModule "\"Red.host4.interfaceTable\""
par Red.host4.llc useSNAP false
par Red.host4.llc fcsMode "\"declared\""
attr enum declared,computed
par Red.host4.llc registerProtocol true
par Red.host4.llc stopOperationExtraTime -1s
attr unit s
par Red.host4.llc stopOperationTimeout 2s
attr unit s
scalar Red.host4.llc pauseSent:count 0
attr title "pause sent, count"
scalar Red.host4.llc pauseSent:sum 0
attr title "pause sent, sum"
scalar Red.host4.llc decapPk:count 0
attr interpolationmode none
attr source decapPk
attr title "packets decapsulated, count"
scalar Red.host4.llc decapPk:sum(packetBytes) 0
attr interpolationmode none
attr source decapPk
attr title "packets decapsulated, sum(packetBytes)"
scalar Red.host4.llc encapPk:count 4
attr interpolationmode none
attr source encapPk
attr title "packets encapsulated, count"
scalar Red.host4.llc encapPk:sum(packetBytes) 400
attr interpolationmode none
attr source encapPk
attr title "packets encapsulated, sum(packetBytes)"
par Red.host4.eth.mac.phys$o.channel typename "\"ned.IdealChannel\""
par Red.host4.eth.phys$i.channel typename "\"ned.IdealChannel\""
par Red.host4.eth.encap.upperLayerOut.channel typename "\"ned.IdealChannel\""
par Red.host4.eth.upperLayerIn.channel typename "\"ned.IdealChannel\""
par Red.host4.eth.mac.queue typename "\"inet.linklayer.ethernet.EtherQueue\""
par Red.host4.eth.mac.queue displayStringTextFormat "\"contains %p pk (%l) pushed %u\\npopped %o removed %r dropped %d\""
par Red.host4.eth.mac.queue packetCapacity 10000
par Red.host4.eth.mac.queue dataCapacity -1b
attr unit b
par Red.host4.eth.mac.queue dropperClass "\"inet::queueing::PacketAtCollectionEndDropper\""
par Red.host4.eth.mac.queue comparatorClass "\"inet::EthernetFrameTypeComparator\""
par Red.host4.eth.mac.queue bufferModule "\"\""
scalar Red.host4.eth.mac.queue packetPopped:count 4
attr interpolationmode none
attr title "packet popped, count"
scalar Red.host4.eth.mac.queue packetPopped:sum(packetBytes) 484
attr interpolationmode none
attr title "packet popped, sum(packetBytes)"
statistic Red.host4.eth.mac.queue queueingTime:histogram
field count 4
field mean 0
field stddev 0
field min 0
field max 0
field sum 0
field sqrsum 0
attr interpolationmode none
attr source queueingTime(packetPopped)
attr title "queueing times, histogram"
attr unit s
bin	-inf	0
bin	-0.5	0
bin	-0.48	0
bin	-0.46	0
bin	-0.44	0
bin	-0.42	0
bin	-0.4	0
bin	-0.38	0
bin	-0.36	0
bin	-0.34	0
bin	-0.32	0
bin	-0.3	0
bin	-0.28	0
bin	-0.26	0
bin	-0.24	0
bin	-0.22	0
bin	-0.2	0
bin	-0.18	0
bin	-0.16	0
bin	-0.14	0
bin	-0.12	0
bin	-0.1	0
bin	-0.08	0
bin	-0.06	0
bin	-0.04	0
bin	-0.02	0
bin	0	4
bin	0.02	0
bin	0.04	0
bin	0.06	0
bin	0.08	0
bin	0.1	0
bin	0.12	0
bin	0.14	0
bin	0.16	0
bin	0.18	0
bin	0.2	0
bin	0.22	0
bin	0.24	0
bin	0.26	0
bin	0.28	0
bin	0.3	0
bin	0.32	0
bin	0.34	0
bin	0.36	0
bin	0.38	0
bin	0.4	0
bin	0.42	0
bin	0.44	0
bin	0.46	0
bin	0.48	0
bin	0.5	0
scalar Red.host4.eth.mac.queue queueLength:max 1
attr interpolationmode sample-hold
attr source "count(packetPushed) - count(packetPopped) - count(packetRemoved) - count(packetDropped)"
attr title "queue length, max"
scalar Red.host4.eth.mac.queue queueLength:timeavg 0
attr interpolationmode sample-hold
attr source "count(packetPushed) - count(packetPopped) - count(packetRemoved) - count(packetDropped)"
attr title "queue length, timeavg"
scalar Red.host4.eth.mac.queue packetPushed:count 4
attr interpolationmode none
attr title "packet pushed, count"
scalar Red.host4.eth.mac.queue packetPushed:sum(packetBytes) 484
attr interpolationmode none
attr title "packet pushed, sum(packetBytes)"
scalar Red.host4.eth.mac.queue packetDropQueueOverflow:count 0
attr interpolationmode none
attr source packetDropReasonIsQueueOverflow(packetDropped)
attr title "packet drops: queue overflow, count"
scalar Red.host4.eth.mac.queue packetDropQueueOverflow:sum(packetBytes) 0
attr interpolationmode none
attr source packetDropReasonIsQueueOverflow(packetDropped)
attr title "packet drops: queue overflow, sum(packetBytes)"
scalar Red.host4.eth.mac.queue packetRemoved:count 0
attr interpolationmode none
attr title "packets removed, count"
scalar Red.host4.eth.mac.queue packetRemoved:sum(packetBytes) 0
attr interpolationmode none
attr title "packets removed, sum(packetBytes)"
par Red.host4.eth.mac typename "\"inet.linklayer.ethernet.EtherMac\""
par Red.host4.eth.mac interfaceTableModule "\"Red.host4.interfaceTable\""
par Red.host4.eth.mac displayStringTextFormat "\"rate: %b\\nsent: %s, rcvd: %r\\nqueue: %q, drop: %d\""
par Red.host4.eth.mac sendRawBytes false
par Red.host4.eth.mac promiscuous false
par Red.host4.eth.mac duplexMode true
par Red.host4.eth.mac frameBursting true
par Red.host4.eth.mac mtu 1500B
attr unit B
par Red.host4.eth.mac stopOperationExtraTime -1s
attr unit s
par Red.host4.eth.mac stopOperationTimeout 2s
attr unit s
scalar Red.host4.eth.mac "simulated time" 2
scalar Red.host4.eth.mac full-duplex 1
scalar Red.host4.eth.mac "frames/sec sent" 2
scalar Red.host4.eth.mac "frames/sec rcvd" 2
scalar Red.host4.eth.mac "bits/sec sent" 1936
scalar Red.host4.eth.mac "bits/sec rcvd" 16720
scalar Red.host4.eth.mac "rx channel idle (%)" 99.82636
scalar Red.host4.eth.mac "rx channel utilization (%)" 0.17364
scalar Red.host4.eth.mac "rx channel collision (%)" 0
scalar Red.host4.eth.mac collisions 0
scalar Red.host4.eth.mac backoffs 0
scalar Red.host4.eth.mac rxPausePkUnits:count 0
attr interpolationmode none
attr title "pause units received, count"
scalar Red.host4.eth.mac rxPausePkUnits:sum 0
attr interpolationmode none
attr title "pause units received, sum"
scalar Red.host4.eth.mac txPausePkUnits:count 0
attr interpolationmode none
attr title "pause units sent, count"
scalar Red.host4.eth.mac txPausePkUnits:sum 0
attr interpolationmode none
attr title "pause units sent, sum"
scalar Red.host4.eth.mac rxPkOk:count 4
attr interpolationmode none
attr source rxPkOk
attr title "packets received OK, count"
scalar Red.host4.eth.mac rxPkOk:sum(packetBytes) 4180
attr interpolationmode none
attr source rxPkOk
attr title "packets received OK, sum(packetBytes)"
scalar Red.host4.eth.mac backoffSlotsGenerated:count 0
attr interpolationmode none
attr title "backoff, count"
scalar Red.host4.eth.mac collision:count 0
attr interpolationmode none
attr title "collision, count"
scalar Red.host4.eth.mac txPk:count 4
attr interpolationmode none
attr source packetSentToLower
attr title "packets transmitted, count"
scalar Red.host4.eth.mac txPk:sum(packetBytes) 484
attr interpolationmode none
attr source packetSentToLower
attr title "packets transmitted, sum(packetBytes)"
scalar Red.host4.eth.mac packetReceivedFromUpper:count 4
attr interpolationmode none
attr source packetReceivedFromUpper
attr title "packet bytes from higher layer, count"
scalar Red.host4.eth.mac packetReceivedFromUpper:sum(packetBytes) 484
attr interpolationmode none
attr source packetReceivedFromUpper
attr title "packet bytes from higher layer, sum(packetBytes)"
scalar Red.host4.eth.mac passedUpPk:count 4
attr interpolationmode none
attr source packetSentToUpper
attr title "packets passed to higher layer, count"
scalar Red.host4.eth.mac passedUpPk:sum(packetBytes) 4180
attr interpolationmode none
attr source packetSentToUpper
attr title "packets passed to higher layer, sum(packetBytes)"
scalar Red.host4.eth.mac packetDropIncorrectlyReceived:count 0
attr interpolationmode none
attr source packetDropReasonIsIncorrectlyReceived(packetDropped)
attr title "packet drop: incorrectly received, count"
scalar Red.host4.eth.mac packetDropIncorrectlyReceived:sum(packetBytes) 0
attr interpolationmode none
attr source packetDropReasonIsIncorrectlyReceived(packetDropped)
attr title "packet drop: incorrectly received, sum(packetBytes)"
scalar Red.host4.eth.mac packetDropInterfaceDown:count 0
attr interpolationmode none
attr source packetDropReasonIsInterfaceDown(packetDropped)
attr title "packet drop: interface down, count"
scalar Red.host4.eth.mac packetDropInterfaceDown:sum(packetBytes) 0
attr interpolationmode none
attr source packetDropReasonIsInterfaceDown(packetDropped)
attr title "packet drop: interface down, sum(packetBytes)"
scalar Red.host4.eth.mac packetDropNotAddressedToUs:count 1
attr interpolationmode none
attr source packetDropReasonIsNotAddressedToUs(packetDropped)
attr title "packet drop: not addressed to us, count"
scalar Red.host4.eth.mac packetDropNotAddressedToUs:sum(packetBytes) 121
attr interpolationmode none
attr source packetDropReasonIsNotAddressedToUs(packetDropped)
attr title "packet drop: not addressed to us, sum(packetBytes)"
par Red.host4.eth.encap typename "\"inet.linklayer.ethernet.EtherEncapDummy\""
par Red.host4.eth typename "\"inet.linklayer.ethernet.EthernetInterface\""
par Red.host4.eth displayStringTextFormat "\"%a (%i)\\n%m\""
par Red.host4.eth interfaceTableModule "\"Red.host4.interfaceTable\""
par Red.host4.eth address "\"auto\""
par Red.host4.eth csmacdSupport true
par Red.host4.eth fcsMode "\"declared\""
attr enum declared,computed
par Red.host4 typename "\"inet.node.ethernet.EtherHost\""
par Red.host4 hasStatus false
par Red.host4 csmacdSupport true
par Red.host4 fcsMode "\"declared\""
attr enum declared,computed
par Red.host5.eth.phys$o.channel typename "\"ned.IdealChannel\""
par Red.host5.ethg$i.channel typename "\"ned.IdealChannel\""
par Red.host5.interfaceTable typename "\"inet.networklayer.common.InterfaceTable\""
par Red.host5.interfaceTable displayAddresses false
par Red.host5.cli typename "\"inet.applications.ethernet.EtherAppClient\""
par Red.host5.cli destAddress "\"\""
par Red.host5.cli startTime 0.602763s
attr unit s
par Red.host5.cli stopTime -1s
attr unit s
par Red.host5.cli localSAP 240
par Red.host5.cli remoteSAP 241
par Red.host5.cli sendInterval "uniform(0s, 1s)"
attr unit s
par Red.host5.cli reqLength 100B
attr unit B
par Red.host5.cli respLength 1024B
attr unit B
par Red.host5.cli stopOperationExtraTime -1s
attr unit s
par Red.host5.cli stopOperationTimeout 2s
attr unit s
scalar Red.host5.cli packetReceived:count 0
attr interpolationmode none
attr source packetReceived
attr title "packets received, count"
scalar Red.host5.cli packetReceived:sum(packetBytes) 0
attr interpolationmode none
attr source packetReceived
attr title "packets received, sum(packetBytes)"
statistic Red.host5.cli endToEndDelay:histogram
field count 0
field mean -nan
field stddev -nan
field min -nan
field max -nan
field sum 0
field sqrsum 0
attr interpolationmode none
attr source dataAge(packetReceived)
attr title "end-to-end delay, histogram"
attr unit s
bin	-inf	0
bin	0	0
bin	1	0
scalar Red.host5.cli packetSent:count 0
attr interpolationmode none
attr source packetSent
attr title "packets sent, count"
scalar Red.host5.cli packetSent:sum(packetBytes) 0
attr interpolationmode none
attr source packetSent
attr title "packets sent, sum(packetBytes)"
par Red.host5.srv typename "\"inet.applications.ethernet.EtherAppServer\""
par Red.host5.srv localSAP 241
par Red.host5.srv stopOperationExtraTime -1s
attr unit s
par Red.host5.srv stopOperationTimeout 2s
attr unit s
scalar Red.host5.srv packetReceived:count 6
attr interpolationmode none
attr source packetReceived
attr title "packets received, count"
scalar Red.host5.srv packetReceived:sum(packetBytes) 600
attr interpolationmode none
attr source packetReceived
attr title "packets received, sum(packetBytes)"
statistic Red.host5.srv endToEndDelay:histogram
field count 6
field mean 0.0004132
field stddev 6.5078143306885e-12
field min 0.0004132
field max 0.0004132
field sum 0.0024792
field sqrsum 1.02440544e-06
attr interpolationmode none
attr source dataAge(packetReceived)
attr title "end-to-end delay, histogram"
attr unit s
bin	-inf	0
bin	0	6
bin	0.01	0
bin	0.02	0
bin	0.03	0
bin	0.04	0
bin	0.05	0
bin	0.06	0
bin	0.07	0
bin	0.08	0
bin	0.09	0
bin	0.1	0
bin	0.11	0
bin	0.12	0
bin	0.13	0
bin	0.14	0
bin	0.15	0
bin	0.16	0
bin	0.17	0
bin	0.18	0
bin	0.19	0
bin	0.2	0
bin	0.21	0
bin	0.22	0
bin	0.23	0
bin	0.24	0
bin	0.25	0
bin	0.26	0
bin	0.27	0
bin	0.28	0
bin	0.29	0
bin	0.3	0
bin	0.31	0
bin	0.32	0
bin	0.33	0
bin	0.34	0
bin	0.35	0
bin	0.36	0
bin	0.37	0
bin	0.38	0
bin	0.39	0
bin	0.4	0
bin	0.41	0
bin	0.42	0
bin	0.43	0
bin	0.44	0
bin	0.45	0
bin	0.46	0
bin	0.47	0
bin	0.48	0
bin	0.49	0
bin	0.5	0
bin	0.51	0
scalar Red.host5.srv packetSent:count 6
attr interpolationmode none
attr source packetSent
attr title "packets sent, count"
scalar Red.host5.srv packetSent:sum(packetBytes) 6144
attr interpolationmode none
attr source packetSent
attr title "packets sent, sum(packetBytes)"
par Red.host5.dp typename "\"inet.common.MessageDispatcher\""
par Red.host5.llc typename "\"inet.linklayer.ethernet.EtherEncap\""
par Red.host5.llc interfaceTableModule "\"Red.host5.interfaceTable\""
par Red.host5.llc useSNAP false
par Red.host5.llc fcsMode "\"declared\""
attr enum declared,computed
par Red.host5.llc registerProtocol true
par Red.host5.llc stopOperationExtraTime -1s
attr unit s
par Red.host5.llc stopOperationTimeout 2s
attr unit s
scalar Red.host5.llc pauseSent:count 0
attr title "pause sent, count"
scalar Red.host5.llc pauseSent:sum 0
attr title "pause sent, sum"
scalar Red.host5.llc decapPk:count 0
attr interpolationmode none
attr source decapPk
attr title "packets decapsulated, count"
scalar Red.host5.llc decapPk:sum(packetBytes) 0
attr interpolationmode none
attr source decapPk
attr title "packets decapsulated, sum(packetBytes)"
scalar Red.host5.llc encapPk:count 6
attr interpolationmode none
attr source encapPk
attr title "packets encapsulated, count"
scalar Red.host5.llc encapPk:sum(packetBytes) 6144
attr interpolationmode none
attr source encapPk
attr title "packets encapsulated, sum(packetBytes)"
par Red.host5.eth.mac.phys$o.channel typename "\"ned.IdealChannel\""
par Red.host5.eth.phys$i.channel typename "\"ned.IdealChannel\""
par Red.host5.eth.encap.upperLayerOut.channel typename "\"ned.IdealChannel\""
par Red.host5.eth.upperLayerIn.channel typename "\"ned.IdealChannel\""
par Red.host5.eth.mac.queue typename "\"inet.linklayer.ethernet.EtherQueue\""
par Red.host5.eth.mac.queue displayStringTextFormat "\"contains %p pk (%l) pushed %u\\npopped %o removed %r dropped %d\""
par Red.host5.eth.mac.queue packetCapacity 10000
par Red.host5.eth.mac.queue dataCapacity -1b
attr unit b
par Red.host5.eth.mac.queue dropperClass "\"inet::queueing::PacketAtCollectionEndDropper\""
par Red.host5.eth.mac.queue comparatorClass "\"inet::EthernetFrameTypeComparator\""
par Red.host5.eth.mac.queue bufferModule "\"\""
scalar Red.host5.eth.mac.queue packetPopped:count 6
attr interpolationmode none
attr title "packet popped, count"
scalar Red.host5.eth.mac.queue packetPopped:sum(packetBytes) 6270
attr interpolationmode none
attr title "packet popped, sum(packetBytes)"
statistic Red.host5.eth.mac.queue queueingTime:histogram
field count 6
field mean 0
field stddev 0
field min 0
field max 0
field sum 0
field sqrsum 0
attr interpolationmode none
attr source queueingTime(packetPopped)
attr title "queueing times, histogram"
attr unit s
bin	-inf	0
bin	-0.5	0
bin	-0.48	0
bin	-0.46	0
bin	-0.44	0
bin	-0.42	0
bin	-0.4	0
bin	-0.38	0
bin	-0.36	0
bin	-0.34	0
bin	-0.32	0
bin	-0.3	0
bin	-0.28	0
bin	-0.26	0
bin	-0.24	0
bin	-0.22	0
bin	-0.2	0
bin	-0.18	0
bin	-0.16	0
bin	-0.14	0
bin	-0.12	0
bin	-0.1	0
bin	-0.08	0
bin	-0.06	0
bin	-0.04	0
bin	-0.02	0
bin	0	6
bin	0.02	0
bin	0.04	0
bin	0.06	0
bin	0.08	0
bin	0.1	0
bin	0.12	0
bin	0.14	0
bin	0.16	0
bin	0.18	0
bin	0.2	0
bin	0.22	0
bin	0.24	0
bin	0.26	0
bin	0.28	0
bin	0.3	0
bin	0.32	0
bin	0.34	0
bin	0.36	0
bin	0.38	0
bin	0.4	0
bin	0.42	0
bin	0.44	0
bin	0.46	0
bin	0.48	0
bin	0.5	0
scalar Red.host5.eth.mac.queue queueLength:max 1
attr interpolationmode sample-hold
attr source "count(packetPushed) - count(packetPopped) - count(packetRemoved) - count(packetDropped)"
attr title "queue length, max"
scalar Red.host5.eth.mac.queue queueLength:timeavg 0
attr interpolationmode sample-hold
attr source "count(packetPushed) - count(packetPopped) - count(packetRemoved) - count(packetDropped)"
attr title "queue length, timeavg"
scalar Red.host5.eth.mac.queue packetPushed:count 6
attr interpolationmode none
attr title "packet pushed, count"
scalar Red.host5.eth.mac.queue packetPushed:sum(packetBytes) 6270
attr interpolationmode none
attr title "packet pushed, sum(packetBytes)"
scalar Red.host5.eth.mac.queue packetDropQueueOverflow:count 0
attr interpolationmode none
attr source packetDropReasonIsQueueOverflow(packetDropped)
attr title "packet drops: queue overflow, count"
scalar Red.host5.eth.mac.queue packetDropQueueOverflow:sum(packetBytes) 0
attr interpolationmode none
attr source packetDropReasonIsQueueOverflow(packetDropped)
attr title "packet drops: queue overflow, sum(packetBytes)"
scalar Red.host5.eth.mac.queue packetRemoved:count 0
attr interpolationmode none
attr title "packets removed, count"
scalar Red.host5.eth.mac.queue packetRemoved:sum(packetBytes) 0
attr interpolationmode none
attr title "packets removed, sum(packetBytes)"
par Red.host5.eth.mac typename "\"inet.linklayer.ethernet.EtherMac\""
par Red.host5.eth.mac interfaceTableModule "\"Red.host5.interfaceTable\""
par Red.host5.eth.mac displayStringTextFormat "\"rate: %b\\nsent: %s, rcvd: %r\\nqueue: %q, drop: %d\""
par Red.host5.eth.mac sendRawBytes false
par Red.host5.eth.mac promiscuous false
par Red.host5.eth.mac duplexMode true
par Red.host5.eth.mac frameBursting true
par Red.host5.eth.mac mtu 1500B
attr unit B
par Red.host5.eth.mac stopOperationExtraTime -1s
attr unit s
par Red.host5.eth.mac stopOperationTimeout 2s
attr unit s
scalar Red.host5.eth.mac "simulated time" 2
scalar Red.host5.eth.mac full-duplex 1
scalar Red.host5.eth.mac "frames/sec sent" 3
scalar Red.host5.eth.mac "frames/sec rcvd" 3
scalar Red.host5.eth.mac "bits/sec sent" 25080
scalar Red.host5.eth.mac "bits/sec rcvd" 2904
scalar Red.host5.eth.mac "rx channel idle (%)" 99.96388
scalar Red.host5.eth.mac "rx channel utilization (%)" 0.03612
scalar Red.host5.eth.mac "rx channel collision (%)" 0
scalar Red.host5.eth.mac collisions 0
scalar Red.host5.eth.mac backoffs 0
scalar Red.host5.eth.mac rxPausePkUnits:count 0
attr interpolationmode none
attr title "pause units received, count"
scalar Red.host5.eth.mac rxPausePkUnits:sum 0
attr interpolationmode none
attr title "pause units received, sum"
scalar Red.host5.eth.mac txPausePkUnits:count 0
attr interpolationmode none
attr title "pause units sent, count"
scalar Red.host5.eth.mac txPausePkUnits:sum 0
attr interpolationmode none
attr title "pause units sent, sum"
scalar Red.host5.eth.mac rxPkOk:count 6
attr interpolationmode none
attr source rxPkOk
attr title "packets received OK, count"
scalar Red.host5.eth.mac rxPkOk:sum(packetBytes) 726
attr interpolationmode none
attr source rxPkOk
attr title "packets received OK, sum(packetBytes)"
scalar Red.host5.eth.mac backoffSlotsGenerated:count 0
attr interpolationmode none
attr title "backoff, count"
scalar Red.host5.eth.mac collision:count 0
attr interpolationmode none
attr title "collision, count"
scalar Red.host5.eth.mac txPk:count 6
attr interpolationmode none
attr source packetSentToLower
attr title "packets transmitted, count"
scalar Red.host5.eth.mac txPk:sum(packetBytes) 6270
attr interpolationmode none
attr source packetSentToLower
attr title "packets transmitted, sum(packetBytes)"
scalar Red.host5.eth.mac packetReceivedFromUpper:count 6
attr interpolationmode none
attr source packetReceivedFromUpper
attr title "packet bytes from higher layer, count"
scalar Red.host5.eth.mac packetReceivedFromUpper:sum(packetBytes) 6270
attr interpolationmode none
attr source packetReceivedFromUpper
attr title "packet bytes from higher layer, sum(packetBytes)"
scalar Red.host5.eth.mac passedUpPk:count 6
attr interpolationmode none
attr source packetSentToUpper
attr title "packets passed to higher layer, count"
scalar Red.host5.eth.mac passedUpPk:sum(packetBytes) 726
attr interpolationmode none
attr source packetSentToUpper
attr title "packets passed to higher layer, sum(packetBytes)"
scalar Red.host5.eth.mac packetDropIncorrectlyReceived:count 0
attr interpolationmode none
attr source packetDropReasonIsIncorrectlyReceived(packetDropped)
attr title "packet drop: incorrectly received, count"
scalar Red.host5.eth.mac packetDropIncorrectlyReceived:sum(packetBytes) 0
attr interpolationmode none
attr source packetDropReasonIsIncorrectlyReceived(packetDropped)
attr title "packet drop: incorrectly received, sum(packetBytes)"
scalar Red.host5.eth.mac packetDropInterfaceDown:count 0
attr interpolationmode none
attr source packetDropReasonIsInterfaceDown(packetDropped)
attr title "packet drop: interface down, count"
scalar Red.host5.eth.mac packetDropInterfaceDown:sum(packetBytes) 0
attr interpolationmode none
attr source packetDropReasonIsInterfaceDown(packetDropped)
attr title "packet drop: interface down, sum(packetBytes)"
scalar Red.host5.eth.mac packetDropNotAddressedToUs:count 1
attr interpolationmode none
attr source packetDropReasonIsNotAddressedToUs(packetDropped)
attr title "packet drop: not addressed to us, count"
scalar Red.host5.eth.mac packetDropNotAddressedToUs:sum(packetBytes) 121
attr interpolationmode none
attr source packetDropReasonIsNotAddressedToUs(packetDropped)
attr title "packet drop: not addressed to us, sum(packetBytes)"
par Red.host5.eth.encap typename "\"inet.linklayer.ethernet.EtherEncapDummy\""
par Red.host5.eth typename "\"inet.linklayer.ethernet.EthernetInterface\""
par Red.host5.eth displayStringTextFormat "\"%a (%i)\\n%m\""
par Red.host5.eth interfaceTableModule "\"Red.host5.interfaceTable\""
par Red.host5.eth address "\"auto\""
par Red.host5.eth csmacdSupport true
par Red.host5.eth fcsMode "\"declared\""
attr enum declared,computed
par Red.host5 typename "\"inet.node.ethernet.EtherHost\""
par Red.host5 hasStatus false
par Red.host5 csmacdSupport true
par Red.host5 fcsMode "\"declared\""
attr enum declared,computed
par Red.host6.eth.phys$o.channel typename "\"ned.IdealChannel\""
par Red.host6.ethg$i.channel typename "\"ned.IdealChannel\""
par Red.host6.interfaceTable typename "\"inet.networklayer.common.InterfaceTable\""
par Red.host6.interfaceTable displayAddresses false
par Red.host6.cli typename "\"inet.applications.ethernet.EtherAppClient\""
par Red.host6.cli destAddress "\"\""
par Red.host6.cli startTime 0.857946s
attr unit s
par Red.host6.cli stopTime -1s
attr unit s
par Red.host6.cli localSAP 240
par Red.host6.cli remoteSAP 241
par Red.host6.cli sendInterval "uniform(0s, 1s)"
attr unit s
par Red.host6.cli reqLength 100B
attr unit B
par Red.host6.cli respLength 1024B
attr unit B
par Red.host6.cli stopOperationExtraTime -1s
attr unit s
par Red.host6.cli stopOperationTimeout 2s
attr unit s
scalar Red.host6.cli packetReceived:count 0
attr interpolationmode none
attr source packetReceived
attr title "packets received, count"
scalar Red.host6.cli packetReceived:sum(packetBytes) 0
attr interpolationmode none
attr source packetReceived
attr title "packets received, sum(packetBytes)"
statistic Red.host6.cli endToEndDelay:histogram
field count 0
field mean -nan
field stddev -nan
field min -nan
field max -nan
field sum 0
field sqrsum 0
attr interpolationmode none
attr source dataAge(packetReceived)
attr title "end-to-end delay, histogram"
attr unit s
bin	-inf	0
bin	0	0
bin	1	0
scalar Red.host6.cli packetSent:count 0
attr interpolationmode none
attr source packetSent
attr title "packets sent, count"
scalar Red.host6.cli packetSent:sum(packetBytes) 0
attr interpolationmode none
attr source packetSent
attr title "packets sent, sum(packetBytes)"
par Red.host6.srv typename "\"inet.applications.ethernet.EtherAppServer\""
par Red.host6.srv localSAP 241
par Red.host6.srv stopOperationExtraTime -1s
attr unit s
par Red.host6.srv stopOperationTimeout 2s
attr unit s
scalar Red.host6.srv packetReceived:count 0
attr interpolationmode none
attr source packetReceived
attr title "packets received, count"
scalar Red.host6.srv packetReceived:sum(packetBytes) 0
attr interpolationmode none
attr source packetReceived
attr title "packets received, sum(packetBytes)"
statistic Red.host6.srv endToEndDelay:histogram
field count 0
field mean -nan
field stddev -nan
field min -nan
field max -nan
field sum 0
field sqrsum 0
attr interpolationmode none
attr source dataAge(packetReceived)
attr title "end-to-end delay, histogram"
attr unit s
bin	-inf	0
bin	0	0
bin	1	0
scalar Red.host6.srv packetSent:count 0
attr interpolationmode none
attr source packetSent
attr title "packets sent, count"
scalar Red.host6.srv packetSent:sum(packetBytes) 0
attr interpolationmode none
attr source packetSent
attr title "packets sent, sum(packetBytes)"
par Red.host6.dp typename "\"inet.common.MessageDispatcher\""
par Red.host6.llc typename "\"inet.linklayer.ethernet.EtherEncap\""
par Red.host6.llc interfaceTableModule "\"Red.host6.interfaceTable\""
par Red.host6.llc useSNAP false
par Red.host6.llc fcsMode "\"declared\""
attr enum declared,computed
par Red.host6.llc registerProtocol true
par Red.host6.llc stopOperationExtraTime -1s
attr unit s
par Red.host6.llc stopOperationTimeout 2s
attr unit s
scalar Red.host6.llc pauseSent:count 0
attr title "pause sent, count"
scalar Red.host6.llc pauseSent:sum 0
attr title "pause sent, sum"
scalar Red.host6.llc decapPk:count 0
attr interpolationmode none
attr source decapPk
attr title "packets decapsulated, count"
scalar Red.host6.llc decapPk:sum(packetBytes) 0
attr interpolationmode none
attr source decapPk
attr title "packets decapsulated, sum(packetBytes)"
scalar Red.host6.llc encapPk:count 0
attr interpolationmode none
attr source encapPk
attr title "packets encapsulated, count"
scalar Red.host6.llc encapPk:sum(packetBytes) 0
attr interpolationmode none
attr source encapPk
attr title "packets encapsulated, sum(packetBytes)"
par Red.host6.eth.mac.phys$o.channel typename "\"ned.IdealChannel\""
par Red.host6.eth.phys$i.channel typename "\"ned.IdealChannel\""
par Red.host6.eth.encap.upperLayerOut.channel typename "\"ned.IdealChannel\""
par Red.host6.eth.upperLayerIn.channel typename "\"ned.IdealChannel\""
par Red.host6.eth.mac.queue typename "\"inet.linklayer.ethernet.EtherQueue\""
par Red.host6.eth.mac.queue displayStringTextFormat "\"contains %p pk (%l) pushed %u\\npopped %o removed %r dropped %d\""
par Red.host6.eth.mac.queue packetCapacity 10000
par Red.host6.eth.mac.queue dataCapacity -1b
attr unit b
par Red.host6.eth.mac.queue dropperClass "\"inet::queueing::PacketAtCollectionEndDropper\""
par Red.host6.eth.mac.queue comparatorClass "\"inet::EthernetFrameTypeComparator\""
par Red.host6.eth.mac.queue bufferModule "\"\""
scalar Red.host6.eth.mac.queue packetPopped:count 0
attr interpolationmode none
attr title "packet popped, count"
scalar Red.host6.eth.mac.queue packetPopped:sum(packetBytes) 0
attr interpolationmode none
attr title "packet popped, sum(packetBytes)"
statistic Red.host6.eth.mac.queue queueingTime:histogram
field count 0
field mean -nan
field stddev -nan
field min -nan
field max -nan
field sum 0
field sqrsum 0
attr interpolationmode none
attr source queueingTime(packetPopped)
attr title "queueing times, histogram"
attr unit s
bin	-inf	0
bin	0	0
bin	1	0
scalar Red.host6.eth.mac.queue queueLength:max -nan
attr interpolationmode sample-hold
attr source "count(packetPushed) - count(packetPopped) - count(packetRemoved) - count(packetDropped)"
attr title "queue length, max"
scalar Red.host6.eth.mac.queue queueLength:timeavg -nan
attr interpolationmode sample-hold
attr source "count(packetPushed) - count(packetPopped) - count(packetRemoved) - count(packetDropped)"
attr title "queue length, timeavg"
scalar Red.host6.eth.mac.queue packetPushed:count 0
attr interpolationmode none
attr title "packet pushed, count"
scalar Red.host6.eth.mac.queue packetPushed:sum(packetBytes) 0
attr interpolationmode none
attr title "packet pushed, sum(packetBytes)"
scalar Red.host6.eth.mac.queue packetDropQueueOverflow:count 0
attr interpolationmode none
attr source packetDropReasonIsQueueOverflow(packetDropped)
attr title "packet drops: queue overflow, count"
scalar Red.host6.eth.mac.queue packetDropQueueOverflow:sum(packetBytes) 0
attr interpolationmode none
attr source packetDropReasonIsQueueOverflow(packetDropped)
attr title "packet drops: queue overflow, sum(packetBytes)"
scalar Red.host6.eth.mac.queue packetRemoved:count 0
attr interpolationmode none
attr title "packets removed, count"
scalar Red.host6.eth.mac.queue packetRemoved:sum(packetBytes) 0
attr interpolationmode none
attr title "packets removed, sum(packetBytes)"
par Red.host6.eth.mac typename "\"inet.linklayer.ethernet.EtherMac\""
par Red.host6.eth.mac interfaceTableModule "\"Red.host6.interfaceTable\""
par Red.host6.eth.mac displayStringTextFormat "\"rate: %b\\nsent: %s, rcvd: %r\\nqueue: %q, drop: %d\""
par Red.host6.eth.mac sendRawBytes false
par Red.host6.eth.mac promiscuous false
par Red.host6.eth.mac duplexMode true
par Red.host6.eth.mac frameBursting true
par Red.host6.eth.mac mtu 1500B
attr unit B
par Red.host6.eth.mac stopOperationExtraTime -1s
attr unit s
par Red.host6.eth.mac stopOperationTimeout 2s
attr unit s
scalar Red.host6.eth.mac "simulated time" 2
scalar Red.host6.eth.mac full-duplex 1
scalar Red.host6.eth.mac "frames/sec sent" 0
scalar Red.host6.eth.mac "frames/sec rcvd" 0
scalar Red.host6.eth.mac "bits/sec sent" 0
scalar Red.host6.eth.mac "bits/sec rcvd" 0
scalar Red.host6.eth.mac "rx channel idle (%)" 99.98968
scalar Red.host6.eth.mac "rx channel utilization (%)" 0.01032
scalar Red.host6.eth.mac "rx channel collision (%)" 0
scalar Red.host6.eth.mac collisions 0
scalar Red.host6.eth.mac backoffs 0
scalar Red.host6.eth.mac rxPausePkUnits:count 0
attr interpolationmode none
attr title "pause units received, count"
scalar Red.host6.eth.mac rxPausePkUnits:sum 0
attr interpolationmode none
attr title "pause units received, sum"
scalar Red.host6.eth.mac txPausePkUnits:count 0
attr interpolationmode none
attr title "pause units sent, count"
scalar Red.host6.eth.mac txPausePkUnits:sum 0
attr interpolationmode none
attr title "pause units sent, sum"
scalar Red.host6.eth.mac rxPkOk:count 0
attr interpolationmode none
attr source rxPkOk
attr title "packets received OK, count"
scalar Red.host6.eth.mac rxPkOk:sum(packetBytes) 0
attr interpolationmode none
attr source rxPkOk
attr title "packets received OK, sum(packetBytes)"
scalar Red.host6.eth.mac backoffSlotsGenerated:count 0
attr interpolationmode none
attr title "backoff, count"
scalar Red.host6.eth.mac collision:count 0
attr interpolationmode none
attr title "collision, count"
scalar Red.host6.eth.mac txPk:count 0
attr interpolationmode none
attr source packetSentToLower
attr title "packets transmitted, count"
scalar Red.host6.eth.mac txPk:sum(packetBytes) 0
attr interpolationmode none
attr source packetSentToLower
attr title "packets transmitted, sum(packetBytes)"
scalar Red.host6.eth.mac packetReceivedFromUpper:count 0
attr interpolationmode none
attr source packetReceivedFromUpper
attr title "packet bytes from higher layer, count"
scalar Red.host6.eth.mac packetReceivedFromUpper:sum(packetBytes) 0
attr interpolationmode none
attr source packetReceivedFromUpper
attr title "packet bytes from higher layer, sum(packetBytes)"
scalar Red.host6.eth.mac passedUpPk:count 0
attr interpolationmode none
attr source packetSentToUpper
attr title "packets passed to higher layer, count"
scalar Red.host6.eth.mac passedUpPk:sum(packetBytes) 0
attr interpolationmode none
attr source packetSentToUpper
attr title "packets passed to higher layer, sum(packetBytes)"
scalar Red.host6.eth.mac packetDropIncorrectlyReceived:count 0
attr interpolationmode none
attr source packetDropReasonIsIncorrectlyReceived(packetDropped)
attr title "packet drop: incorrectly received, count"
scalar Red.host6.eth.mac packetDropIncorrectlyReceived:sum(packetBytes) 0
attr interpolationmode none
attr source packetDropReasonIsIncorrectlyReceived(packetDropped)
attr title "packet drop: incorrectly received, sum(packetBytes)"
scalar Red.host6.eth.mac packetDropInterfaceDown:count 0
attr interpolationmode none
attr source packetDropReasonIsInterfaceDown(packetDropped)
attr title "packet drop: interface down, count"
scalar Red.host6.eth.mac packetDropInterfaceDown:sum(packetBytes) 0
attr interpolationmode none
attr source packetDropReasonIsInterfaceDown(packetDropped)
attr title "packet drop: interface down, sum(packetBytes)"
scalar Red.host6.eth.mac packetDropNotAddressedToUs:count 2
attr interpolationmode none
attr source packetDropReasonIsNotAddressedToUs(packetDropped)
attr title "packet drop: not addressed to us, count"
[...]
attr interpolationmode none
attr source packetDropReasonIsIncorrectlyReceived(packetDropped)
attr title "packet drop: incorrectly received, count"
scalar Red.switch5.eth[1].mac packetDropIncorrectlyReceived:sum(packetBytes) 0
attr interpolationmode none
attr source packetDropReasonIsIncorrectlyReceived(packetDropped)
attr title "packet drop: incorrectly received, sum(packetBytes)"
scalar Red.switch5.eth[1].mac packetDropInterfaceDown:count 0
attr interpolationmode none
attr source packetDropReasonIsInterfaceDown(packetDropped)
attr title "packet drop: interface down, count"
scalar Red.switch5.eth[1].mac packetDropInterfaceDown:sum(packetBytes) 0
attr interpolationmode none
attr source packetDropReasonIsInterfaceDown(packetDropped)
attr title "packet drop: interface down, sum(packetBytes)"
scalar Red.switch5.eth[1].mac packetDropNotAddressedToUs:count 0
attr interpolationmode none
attr source packetDropReasonIsNotAddressedToUs(packetDropped)
attr title "packet drop: not addressed to us, count"
scalar Red.switch5.eth[1].mac packetDropNotAddressedToUs:sum(packetBytes) 0
attr interpolationmode none
attr source packetDropReasonIsNotAddressedToUs(packetDropped)
attr title "packet drop: not addressed to us, sum(packetBytes)"
par Red.switch5.eth[1].encap typename "\"inet.linklayer.ethernet.EtherEncapDummy\""
par Red.switch5.eth[1] typename "\"inet.linklayer.ethernet.EthernetInterface\""
par Red.switch5.eth[1] displayStringTextFormat "\"%a (%i)\\n%m\""
par Red.switch5.eth[1] interfaceTableModule "\"Red.switch5.interfaceTable\""
par Red.switch5.eth[1] address "\"AAAAAA000005\""
par Red.switch5.eth[1] csmacdSupport true
par Red.switch5.eth[1] fcsMode "\"declared\""
attr enum declared,computed
par Red.switch5.eth[2].mac.phys$o.channel typename "\"ned.IdealChannel\""
par Red.switch5.eth[2].phys$i.channel typename "\"ned.IdealChannel\""
par Red.switch5.eth[2].encap.upperLayerOut.channel typename "\"ned.IdealChannel\""
par Red.switch5.eth[2].upperLayerIn.channel typename "\"ned.IdealChannel\""
par Red.switch5.eth[2].mac.queue typename "\"inet.linklayer.ethernet.EtherQueue\""
par Red.switch5.eth[2].mac.queue displayStringTextFormat "\"contains %p pk (%l) pushed %u\\npopped %o removed %r dropped %d\""
par Red.switch5.eth[2].mac.queue packetCapacity 10000
par Red.switch5.eth[2].mac.queue dataCapacity -1b
attr unit b
par Red.switch5.eth[2].mac.queue dropperClass "\"inet::queueing::PacketAtCollectionEndDropper\""
par Red.switch5.eth[2].mac.queue comparatorClass "\"inet::EthernetFrameTypeComparator\""
par Red.switch5.eth[2].mac.queue bufferModule "\"\""
scalar Red.switch5.eth[2].mac.queue packetPopped:count 7
attr interpolationmode none
attr title "packet popped, count"
scalar Red.switch5.eth[2].mac.queue packetPopped:sum(packetBytes) 847
attr interpolationmode none
attr title "packet popped, sum(packetBytes)"
statistic Red.switch5.eth[2].mac.queue queueingTime:histogram
field count 7
field mean 0
field stddev 0
field min 0
field max 0
field sum 0
field sqrsum 0
attr interpolationmode none
attr source queueingTime(packetPopped)
attr title "queueing times, histogram"
attr unit s
bin	-inf	0
bin	-0.5	0
bin	-0.48	0
bin	-0.46	0
bin	-0.44	0
bin	-0.42	0
bin	-0.4	0
bin	-0.38	0
bin	-0.36	0
bin	-0.34	0
bin	-0.32	0
bin	-0.3	0
bin	-0.28	0
bin	-0.26	0
bin	-0.24	0
bin	-0.22	0
bin	-0.2	0
bin	-0.18	0
bin	-0.16	0
bin	-0.14	0
bin	-0.12	0
bin	-0.1	0
bin	-0.08	0
bin	-0.06	0
bin	-0.04	0
bin	-0.02	0
bin	0	7
bin	0.02	0
bin	0.04	0
bin	0.06	0
bin	0.08	0
bin	0.1	0
bin	0.12	0
bin	0.14	0
bin	0.16	0
bin	0.18	0
bin	0.2	0
bin	0.22	0
bin	0.24	0
bin	0.26	0
bin	0.28	0
bin	0.3	0
bin	0.32	0
bin	0.34	0
bin	0.36	0
bin	0.38	0
bin	0.4	0
bin	0.42	0
bin	0.44	0
bin	0.46	0
bin	0.48	0
bin	0.5	0
scalar Red.switch5.eth[2].mac.queue queueLength:max 1
attr interpolationmode sample-hold
attr source "count(packetPushed) - count(packetPopped) - count(packetRemoved) - count(packetDropped)"
attr title "queue length, max"
scalar Red.switch5.eth[2].mac.queue queueLength:timeavg 0
attr interpolationmode sample-hold
attr source "count(packetPushed) - count(packetPopped) - count(packetRemoved) - count(packetDropped)"
attr title "queue length, timeavg"
scalar Red.switch5.eth[2].mac.queue packetPushed:count 7
attr interpolationmode none
attr title "packet pushed, count"
scalar Red.switch5.eth[2].mac.queue packetPushed:sum(packetBytes) 847
attr interpolationmode none
attr title "packet pushed, sum(packetBytes)"
scalar Red.switch5.eth[2].mac.queue packetDropQueueOverflow:count 0
attr interpolationmode none
attr source packetDropReasonIsQueueOverflow(packetDropped)
attr title "packet drops: queue overflow, count"
scalar Red.switch5.eth[2].mac.queue packetDropQueueOverflow:sum(packetBytes) 0
attr interpolationmode none
attr source packetDropReasonIsQueueOverflow(packetDropped)
attr title "packet drops: queue overflow, sum(packetBytes)"
scalar Red.switch5.eth[2].mac.queue packetRemoved:count 0
attr interpolationmode none
attr title "packets removed, count"
scalar Red.switch5.eth[2].mac.queue packetRemoved:sum(packetBytes) 0
attr interpolationmode none
attr title "packets removed, sum(packetBytes)"
par Red.switch5.eth[2].mac typename "\"inet.linklayer.ethernet.EtherMac\""
par Red.switch5.eth[2].mac interfaceTableModule "\"Red.switch5.interfaceTable\""
par Red.switch5.eth[2].mac displayStringTextFormat "\"rate: %b\\nsent: %s, rcvd: %r\\nqueue: %q, drop: %d\""
par Red.switch5.eth[2].mac sendRawBytes false
par Red.switch5.eth[2].mac promiscuous true
par Red.switch5.eth[2].mac duplexMode true
par Red.switch5.eth[2].mac frameBursting true
par Red.switch5.eth[2].mac mtu 1500B
attr unit B
par Red.switch5.eth[2].mac stopOperationExtraTime -1s
attr unit s
par Red.switch5.eth[2].mac stopOperationTimeout 2s
attr unit s
scalar Red.switch5.eth[2].mac "simulated time" 2
scalar Red.switch5.eth[2].mac full-duplex 1
scalar Red.switch5.eth[2].mac "frames/sec sent" 3.5
scalar Red.switch5.eth[2].mac "frames/sec rcvd" 3
scalar Red.switch5.eth[2].mac "bits/sec sent" 3388
scalar Red.switch5.eth[2].mac "bits/sec rcvd" 25080
scalar Red.switch5.eth[2].mac "rx channel idle (%)" 99.74728
scalar Red.switch5.eth[2].mac "rx channel utilization (%)" 0.25272
scalar Red.switch5.eth[2].mac "rx channel collision (%)" 0
scalar Red.switch5.eth[2].mac collisions 0
scalar Red.switch5.eth[2].mac backoffs 0
scalar Red.switch5.eth[2].mac rxPausePkUnits:count 0
attr interpolationmode none
attr title "pause units received, count"
scalar Red.switch5.eth[2].mac rxPausePkUnits:sum 0
attr interpolationmode none
attr title "pause units received, sum"
scalar Red.switch5.eth[2].mac txPausePkUnits:count 0
attr interpolationmode none
attr title "pause units sent, count"
scalar Red.switch5.eth[2].mac txPausePkUnits:sum 0
attr interpolationmode none
attr title "pause units sent, sum"
scalar Red.switch5.eth[2].mac rxPkOk:count 6
attr interpolationmode none
attr source rxPkOk
attr title "packets received OK, count"
scalar Red.switch5.eth[2].mac rxPkOk:sum(packetBytes) 6270
attr interpolationmode none
attr source rxPkOk
attr title "packets received OK, sum(packetBytes)"
scalar Red.switch5.eth[2].mac backoffSlotsGenerated:count 0
attr interpolationmode none
attr title "backoff, count"
scalar Red.switch5.eth[2].mac collision:count 0
attr interpolationmode none
attr title "collision, count"
scalar Red.switch5.eth[2].mac txPk:count 7
attr interpolationmode none
attr source packetSentToLower
attr title "packets transmitted, count"
scalar Red.switch5.eth[2].mac txPk:sum(packetBytes) 847
attr interpolationmode none
attr source packetSentToLower
attr title "packets transmitted, sum(packetBytes)"
scalar Red.switch5.eth[2].mac packetReceivedFromUpper:count 7
attr interpolationmode none
attr source packetReceivedFromUpper
attr title "packet bytes from higher layer, count"
scalar Red.switch5.eth[2].mac packetReceivedFromUpper:sum(packetBytes) 847
attr interpolationmode none
attr source packetReceivedFromUpper
attr title "packet bytes from higher layer, sum(packetBytes)"
scalar Red.switch5.eth[2].mac passedUpPk:count 6
attr interpolationmode none
attr source packetSentToUpper
attr title "packets passed to higher layer, count"
scalar Red.switch5.eth[2].mac passedUpPk:sum(packetBytes) 6270
attr interpolationmode none
attr source packetSentToUpper
attr title "packets passed to higher layer, sum(packetBytes)"
scalar Red.switch5.eth[2].mac packetDropIncorrectlyReceived:count 0
attr interpolationmode none
attr source packetDropReasonIsIncorrectlyReceived(packetDropped)
attr title "packet drop: incorrectly received, count"
scalar Red.switch5.eth[2].mac packetDropIncorrectlyReceived:sum(packetBytes) 0
attr interpolationmode none
attr source packetDropReasonIsIncorrectlyReceived(packetDropped)
attr title "packet drop: incorrectly received, sum(packetBytes)"
scalar Red.switch5.eth[2].mac packetDropInterfaceDown:count 0
attr interpolationmode none
attr source packetDropReasonIsInterfaceDown(packetDropped)
attr title "packet drop: interface down, count"
scalar Red.switch5.eth[2].mac packetDropInterfaceDown:sum(packetBytes) 0
attr interpolationmode none
attr source packetDropReasonIsInterfaceDown(packetDropped)
attr title "packet drop: interface down, sum(packetBytes)"
scalar Red.switch5.eth[2].mac packetDropNotAddressedToUs:count 0
attr interpolationmode none
attr source packetDropReasonIsNotAddressedToUs(packetDropped)
attr title "packet drop: not addressed to us, count"
scalar Red.switch5.eth[2].mac packetDropNotAddressedToUs:sum(packetBytes) 0
attr interpolationmode none
attr source packetDropReasonIsNotAddressedToUs(packetDropped)
attr title "packet drop: not addressed to us, sum(packetBytes)"
par Red.switch5.eth[2].encap typename "\"inet.linklayer.ethernet.EtherEncapDummy\""
par Red.switch5.eth[2] typename "\"inet.linklayer.ethernet.EthernetInterface\""
par Red.switch5.eth[2] displayStringTextFormat "\"%a (%i)\\n%m\""
par Red.switch5.eth[2] interfaceTableModule "\"Red.switch5.interfaceTable\""
par Red.switch5.eth[2] address "\"AAAAAA000005\""
par Red.switch5.eth[2] csmacdSupport true
par Red.switch5.eth[2] fcsMode "\"declared\""
attr enum declared,computed
par Red.switch5.eth[3].mac.phys$o.channel typename "\"ned.IdealChannel\""
par Red.switch5.eth[3].phys$i.channel typename "\"ned.IdealChannel\""
par Red.switch5.eth[3].encap.upperLayerOut.channel typename "\"ned.IdealChannel\""
par Red.switch5.eth[3].upperLayerIn.channel typename "\"ned.IdealChannel\""
par Red.switch5.eth[3].mac.queue typename "\"inet.linklayer.ethernet.EtherQueue\""
par Red.switch5.eth[3].mac.queue displayStringTextFormat "\"contains %p pk (%l) pushed %u\\npopped %o removed %r dropped %d\""
par Red.switch5.eth[3].mac.queue packetCapacity 10000
par Red.switch5.eth[3].mac.queue dataCapacity -1b
attr unit b
par Red.switch5.eth[3].mac.queue dropperClass "\"inet::queueing::PacketAtCollectionEndDropper\""
par Red.switch5.eth[3].mac.queue comparatorClass "\"inet::EthernetFrameTypeComparator\""
par Red.switch5.eth[3].mac.queue bufferModule "\"\""
scalar Red.switch5.eth[3].mac.queue packetPopped:count 7
attr interpolationmode none
attr title "packet popped, count"
scalar Red.switch5.eth[3].mac.queue packetPopped:sum(packetBytes) 2695
attr interpolationmode none
attr title "packet popped, sum(packetBytes)"
statistic Red.switch5.eth[3].mac.queue queueingTime:histogram
field count 7
field mean 0
field stddev 0
field min 0
field max 0
field sum 0
field sqrsum 0
attr interpolationmode none
attr source queueingTime(packetPopped)
attr title "queueing times, histogram"
attr unit s
bin	-inf	0
bin	-0.5	0
bin	-0.48	0
bin	-0.46	0
bin	-0.44	0
bin	-0.42	0
bin	-0.4	0
bin	-0.38	0
bin	-0.36	0
bin	-0.34	0
bin	-0.32	0
bin	-0.3	0
bin	-0.28	0
bin	-0.26	0
bin	-0.24	0
bin	-0.22	0
bin	-0.2	0
bin	-0.18	0
bin	-0.16	0
bin	-0.14	0
bin	-0.12	0
bin	-0.1	0
bin	-0.08	0
bin	-0.06	0
bin	-0.04	0
bin	-0.02	0
bin	0	7
bin	0.02	0
bin	0.04	0
bin	0.06	0
bin	0.08	0
bin	0.1	0
bin	0.12	0
bin	0.14	0
bin	0.16	0
bin	0.18	0
bin	0.2	0
bin	0.22	0
bin	0.24	0
bin	0.26	0
bin	0.28	0
bin	0.3	0
bin	0.32	0
bin	0.34	0
bin	0.36	0
bin	0.38	0
bin	0.4	0
bin	0.42	0
bin	0.44	0
bin	0.46	0
bin	0.48	0
bin	0.5	0
scalar Red.switch5.eth[3].mac.queue queueLength:max 1
attr interpolationmode sample-hold
attr source "count(packetPushed) - count(packetPopped) - count(packetRemoved) - count(packetDropped)"
attr title "queue length, max"
scalar Red.switch5.eth[3].mac.queue queueLength:timeavg 0
attr interpolationmode sample-hold
attr source "count(packetPushed) - count(packetPopped) - count(packetRemoved) - count(packetDropped)"
attr title "queue length, timeavg"
scalar Red.switch5.eth[3].mac.queue packetPushed:count 7
attr interpolationmode none
attr title "packet pushed, count"
scalar Red.switch5.eth[3].mac.queue packetPushed:sum(packetBytes) 2695
attr interpolationmode none
attr title "packet pushed, sum(packetBytes)"
scalar Red.switch5.eth[3].mac.queue packetDropQueueOverflow:count 0
attr interpolationmode none
attr source packetDropReasonIsQueueOverflow(packetDropped)
attr title "packet drops: queue overflow, count"
scalar Red.switch5.eth[3].mac.queue packetDropQueueOverflow:sum(packetBytes) 0
attr interpolationmode none
attr source packetDropReasonIsQueueOverflow(packetDropped)
attr title "packet drops: queue overflow, sum(packetBytes)"
scalar Red.switch5.eth[3].mac.queue packetRemoved:count 0
attr interpolationmode none
attr title "packets removed, count"
scalar Red.switch5.eth[3].mac.queue packetRemoved:sum(packetBytes) 0
attr interpolationmode none
attr title "packets removed, sum(packetBytes)"
par Red.switch5.eth[3].mac typename "\"inet.linklayer.ethernet.EtherMac\""
par Red.switch5.eth[3].mac interfaceTableModule "\"Red.switch5.interfaceTable\""
par Red.switch5.eth[3].mac displayStringTextFormat "\"rate: %b\\nsent: %s, rcvd: %r\\nqueue: %q, drop: %d\""
par Red.switch5.eth[3].mac sendRawBytes false
par Red.switch5.eth[3].mac promiscuous true
par Red.switch5.eth[3].mac duplexMode true
par Red.switch5.eth[3].mac frameBursting true
par Red.switch5.eth[3].mac mtu 1500B
attr unit B
par Red.switch5.eth[3].mac stopOperationExtraTime -1s
attr unit s
par Red.switch5.eth[3].mac stopOperationTimeout 2s
attr unit s
scalar Red.switch5.eth[3].mac "simulated time" 2
scalar Red.switch5.eth[3].mac full-duplex 1
scalar Red.switch5.eth[3].mac "frames/sec sent" 3.5
scalar Red.switch5.eth[3].mac "frames/sec rcvd" 3
scalar Red.switch5.eth[3].mac "bits/sec sent" 10780
scalar Red.switch5.eth[3].mac "bits/sec rcvd" 17688
scalar Red.switch5.eth[3].mac "rx channel idle (%)" 99.8212
scalar Red.switch5.eth[3].mac "rx channel utilization (%)" 0.1788
scalar Red.switch5.eth[3].mac "rx channel collision (%)" 0
scalar Red.switch5.eth[3].mac collisions 0
scalar Red.switch5.eth[3].mac backoffs 0
scalar Red.switch5.eth[3].mac rxPausePkUnits:count 0
attr interpolationmode none
attr title "pause units received, count"
scalar Red.switch5.eth[3].mac rxPausePkUnits:sum 0
attr interpolationmode none
attr title "pause units received, sum"
scalar Red.switch5.eth[3].mac txPausePkUnits:count 0
attr interpolationmode none
attr title "pause units sent, count"
scalar Red.switch5.eth[3].mac txPausePkUnits:sum 0
attr interpolationmode none
attr title "pause units sent, sum"
scalar Red.switch5.eth[3].mac rxPkOk:count 6
attr interpolationmode none
attr source rxPkOk
attr title "packets received OK, count"
scalar Red.switch5.eth[3].mac rxPkOk:sum(packetBytes) 4422
attr interpolationmode none
attr source rxPkOk
attr title "packets received OK, sum(packetBytes)"
scalar Red.switch5.eth[3].mac backoffSlotsGenerated:count 0
attr interpolationmode none
attr title "backoff, count"
scalar Red.switch5.eth[3].mac collision:count 0
attr interpolationmode none
attr title "collision, count"
scalar Red.switch5.eth[3].mac txPk:count 7
attr interpolationmode none
attr source packetSentToLower
attr title "packets transmitted, count"
scalar Red.switch5.eth[3].mac txPk:sum(packetBytes) 2695
attr interpolationmode none
attr source packetSentToLower
attr title "packets transmitted, sum(packetBytes)"
scalar Red.switch5.eth[3].mac packetReceivedFromUpper:count 7
attr interpolationmode none
attr source packetReceivedFromUpper
attr title "packet bytes from higher layer, count"
scalar Red.switch5.eth[3].mac packetReceivedFromUpper:sum(packetBytes) 2695
attr interpolationmode none
attr source packetReceivedFromUpper
attr title "packet bytes from higher layer, sum(packetBytes)"
scalar Red.switch5.eth[3].mac passedUpPk:count 6
attr interpolationmode none
attr source packetSentToUpper
attr title "packets passed to higher layer, count"
scalar Red.switch5.eth[3].mac passedUpPk:sum(packetBytes) 4422
attr interpolationmode none
attr source packetSentToUpper
attr title "packets passed to higher layer, sum(packetBytes)"
scalar Red.switch5.eth[3].mac packetDropIncorrectlyReceived:count 0
attr interpolationmode none
attr source packetDropReasonIsIncorrectlyReceived(packetDropped)
attr title "packet drop: incorrectly received, count"
scalar Red.switch5.eth[3].mac packetDropIncorrectlyReceived:sum(packetBytes) 0
attr interpolationmode none
attr source packetDropReasonIsIncorrectlyReceived(packetDropped)
attr title "packet drop: incorrectly received, sum(packetBytes)"
scalar Red.switch5.eth[3].mac packetDropInterfaceDown:count 0
attr interpolationmode none
attr source packetDropReasonIsInterfaceDown(packetDropped)
attr title "packet drop: interface down, count"
scalar Red.switch5.eth[3].mac packetDropInterfaceDown:sum(packetBytes) 0
attr interpolationmode none
attr source packetDropReasonIsInterfaceDown(packetDropped)
attr title "packet drop: interface down, sum(packetBytes)"
scalar Red.switch5.eth[3].mac packetDropNotAddressedToUs:count 0
attr interpolationmode none
attr source packetDropReasonIsNotAddressedToUs(packetDropped)
attr title "packet drop: not addressed to us, count"
scalar Red.switch5.eth[3].mac packetDropNotAddressedToUs:sum(packetBytes) 0
attr interpolationmode none
attr source packetDropReasonIsNotAddressedToUs(packetDropped)
attr title "packet drop: not addressed to us, sum(packetBytes)"
par Red.switch5.eth[3].encap typename "\"inet.linklayer.ethernet.EtherEncapDummy\""
par Red.switch5.eth[3] typename "\"inet.linklayer.ethernet.EthernetInterface\""
par Red.switch5.eth[3] displayStringTextFormat "\"%a (%i)\\n%m\""
par Red.switch5.eth[3] interfaceTableModule "\"Red.switch5.interfaceTable\""
par Red.switch5.eth[3] address "\"AAAAAA000005\""
par Red.switch5.eth[3] csmacdSupport true
par Red.switch5.eth[3] fcsMode "\"declared\""
attr enum declared,computed
par Red.switch5.encap typename "\"inet.linklayer.ethernet.EtherEncap\""
par Red.switch5.encap interfaceTableModule "\"Red.switch5.interfaceTable\""
par Red.switch5.encap useSNAP false
par Red.switch5.encap fcsMode "\"declared\""
attr enum declared,computed
par Red.switch5.encap registerProtocol true
par Red.switch5.encap stopOperationExtraTime -1s
attr unit s
par Red.switch5.encap stopOperationTimeout 2s
attr unit s
scalar Red.switch5.encap pauseSent:count 0
attr title "pause sent, count"
scalar Red.switch5.encap pauseSent:sum 0
attr title "pause sent, sum"
scalar Red.switch5.encap decapPk:count 0
attr interpolationmode none
attr source decapPk
attr title "packets decapsulated, count"
scalar Red.switch5.encap decapPk:sum(packetBytes) 0
attr interpolationmode none
attr source decapPk
attr title "packets decapsulated, sum(packetBytes)"
scalar Red.switch5.encap encapPk:count 0
attr interpolationmode none
attr source encapPk
attr title "packets encapsulated, count"
scalar Red.switch5.encap encapPk:sum(packetBytes) 0
attr interpolationmode none
attr source encapPk
attr title "packets encapsulated, sum(packetBytes)"
par Red.switch5 typename "\"inet.node.ethernet.EtherSwitch\""
par Red.switch5 numPcapRecorders 0
par Red.switch5 hasStatus false
par Red.switch5 hasStp false
par Red.switch5 csmacdSupport true
par Red.switch5 fcsMode "\"declared\""
attr enum declared,computed
par Red.switch5 spanningTreeProtocol "\"Stp\""
par Red.switch5 numEthInterfaces 0
par Red typename "\"red8.Red\""

