version 3
run Request-Reply-0-20210624-12:55:34-17613
attr configname Request-Reply
attr datetime 20210624-12:55:34
attr datetimef 20210624-125534
attr experiment Request-Reply
attr inifile omnetpp.ini
attr iterationvars ""
attr iterationvarsf ""
attr measurement ""
attr network Red
attr processid 17613
attr repetition 0
attr replication #0
attr resultdir results
attr runnumber 0
attr seedset 0
itervar iterationvarsd ""
config image-path ../../../../inet-4.3.2-src/inet4.3/images
config **.switch1.**.address "\"AAAAAA000001\""
config **.switch2.**.address "\"AAAAAA000002\""
config **.switch3.**.address "\"AAAAAA000003\""
config **.switch4.**.address "\"AAAAAA000004\""
config **.switch5.**.address "\"AAAAAA000005\""
config **.host1.cli.destAddress "\"host8\""
config **.host8.cli.destAddress "\"host5\""
config **.host4.cli.destAddress "\"host5\""
config network Red
config sim-time-limit 2s

par Red.host1.ethg$o.channel typename "\"red8.Red.cable\""
par Red.host1.ethg$o.channel disabled false
par Red.host1.ethg$o.channel delay 1e-07s
attr unit s
par Red.host1.ethg$o.channel datarate 1e+07bps
attr unit bps
par Red.host1.ethg$o.channel ber 0
par Red.host1.ethg$o.channel per 0
par Red.switch1.ethg$o[0].channel typename "\"red8.Red.cable\""
par Red.switch1.ethg$o[0].channel disabled false
par Red.switch1.ethg$o[0].channel delay 1e-07s
attr unit s
par Red.switch1.ethg$o[0].channel datarate 1e+07bps
attr unit bps
par Red.switch1.ethg$o[0].channel ber 0
par Red.switch1.ethg$o[0].channel per 0
par Red.host2.ethg$o.channel typename "\"red8.Red.cable\""
par Red.host2.ethg$o.channel disabled false
par Red.host2.ethg$o.channel delay 1e-07s
attr unit s
par Red.host2.ethg$o.channel datarate 1e+07bps
attr unit bps
par Red.host2.ethg$o.channel ber 0
par Red.host2.ethg$o.channel per 0
par Red.switch1.ethg$o[1].channel typename "\"red8.Red.cable\""
par Red.switch1.ethg$o[1].channel disabled false
par Red.switch1.ethg$o[1].channel delay 1e-07s
attr unit s
par Red.switch1.ethg$o[1].channel datarate 1e+07bps
attr unit bps
par Red.switch1.ethg$o[1].channel ber 0
par Red.switch1.ethg$o[1].channel per 0
par Red.host3.ethg$o.channel typename "\"red8.Red.cable\""
par Red.host3.ethg$o.channel disabled false
par Red.host3.ethg$o.channel delay 1e-07s
attr unit s
par Red.host3.ethg$o.channel datarate 1e+07bps
attr unit bps
par Red.host3.ethg$o.channel ber 0
par Red.host3.ethg$o.channel per 0
par Red.switch2.ethg$o[0].channel typename "\"red8.Red.cable\""
par Red.switch2.ethg$o[0].channel disabled false
par Red.switch2.ethg$o[0].channel delay 1e-07s
attr unit s
par Red.switch2.ethg$o[0].channel datarate 1e+07bps
attr unit bps
par Red.switch2.ethg$o[0].channel ber 0
par Red.switch2.ethg$o[0].channel per 0
par Red.host4.ethg$o.channel typename "\"red8.Red.cable\""
par Red.host4.ethg$o.channel disabled false
par Red.host4.ethg$o.channel delay 1e-07s
attr unit s
par Red.host4.ethg$o.channel datarate 1e+07bps
attr unit bps
par Red.host4.ethg$o.channel ber 0
par Red.host4.ethg$o.channel per 0
par Red.switch2.ethg$o[1].channel typename "\"red8.Red.cable\""
par Red.switch2.ethg$o[1].channel disabled false
par Red.switch2.ethg$o[1].channel delay 1e-07s
attr unit s
par Red.switch2.ethg$o[1].channel datarate 1e+07bps
attr unit bps
par Red.switch2.ethg$o[1].channel ber 0
par Red.switch2.ethg$o[1].channel per 0
par Red.host5.ethg$o.channel typename "\"red8.Red.cable\""
par Red.host5.ethg$o.channel disabled false
par Red.host5.ethg$o.channel delay 1e-07s
attr unit s
par Red.host5.ethg$o.channel datarate 1e+07bps
attr unit bps
par Red.host5.ethg$o.channel ber 0
par Red.host5.ethg$o.channel per 0
par Red.switch3.ethg$o[0].channel typename "\"red8.Red.cable\""
par Red.switch3.ethg$o[0].channel disabled false
par Red.switch3.ethg$o[0].channel delay 1e-07s
attr unit s
par Red.switch3.ethg$o[0].channel datarate 1e+07bps
attr unit bps
par Red.switch3.ethg$o[0].channel ber 0
par Red.switch3.ethg$o[0].channel per 0
par Red.host6.ethg$o.channel typename "\"red8.Red.cable\""
par Red.host6.ethg$o.channel disabled false
par Red.host6.ethg$o.channel delay 1e-07s
attr unit s
par Red.host6.ethg$o.channel datarate 1e+07bps
attr unit bps
par Red.host6.ethg$o.channel ber 0
par Red.host6.ethg$o.channel per 0
par Red.switch3.ethg$o[1].channel typename "\"red8.Red.cable\""
par Red.switch3.ethg$o[1].channel disabled false
par Red.switch3.ethg$o[1].channel delay 1e-07s
attr unit s
par Red.switch3.ethg$o[1].channel datarate 1e+07bps
attr unit bps
par Red.switch3.ethg$o[1].channel ber 0
par Red.switch3.ethg$o[1].channel per 0
par Red.host7.ethg$o.channel typename "\"red8.Red.cable\""
par Red.host7.ethg$o.channel disabled false
par Red.host7.ethg$o.channel delay 1e-07s
attr unit s
par Red.host7.ethg$o.channel datarate 1e+07bps
attr unit bps
par Red.host7.ethg$o.channel ber 0
par Red.host7.ethg$o.channel per 0
par Red.switch4.ethg$o[0].channel typename "\"red8.Red.cable\""
par Red.switch4.ethg$o[0].channel disabled false
par Red.switch4.ethg$o[0].channel delay 1e-07s
attr unit s
par Red.switch4.ethg$o[0].channel datarate 1e+07bps
attr unit bps
par Red.switch4.ethg$o[0].channel ber 0
par Red.switch4.ethg$o[0].channel per 0
par Red.host8.ethg$o.channel typename "\"red8.Red.cable\""
par Red.host8.ethg$o.channel disabled false
par Red.host8.ethg$o.channel delay 1e-07s
attr unit s
par Red.host8.ethg$o.channel datarate 1e+07bps
attr unit bps
par Red.host8.ethg$o.channel ber 0
par Red.host8.ethg$o.channel per 0
par Red.switch4.ethg$o[1].channel typename "\"red8.Red.cable\""
par Red.switch4.ethg$o[1].channel disabled false
par Red.switch4.ethg$o[1].channel delay 1e-07s
attr unit s
par Red.switch4.ethg$o[1].channel datarate 1e+07bps
attr unit bps
par Red.switch4.ethg$o[1].channel ber 0
par Red.switch4.ethg$o[1].channel per 0
par Red.switch1.ethg$o[2].channel typename "\"red8.Red.cable\""
par Red.switch1.ethg$o[2].channel disabled false
par Red.switch1.ethg$o[2].channel delay 1e-07s
attr unit s
par Red.switch1.ethg$o[2].channel datarate 1e+07bps
attr unit bps
par Red.switch1.ethg$o[2].channel ber 0
par Red.switch1.ethg$o[2].channel per 0
par Red.switch5.ethg$o[0].channel typename "\"red8.Red.cable\""
par Red.switch5.ethg$o[0].channel disabled false
par Red.switch5.ethg$o[0].channel delay 1e-07s
attr unit s
par Red.switch5.ethg$o[0].channel datarate 1e+07bps
attr unit bps
par Red.switch5.ethg$o[0].channel ber 0
par Red.switch5.ethg$o[0].channel per 0
par Red.switch2.ethg$o[2].channel typename "\"red8.Red.cable\""
par Red.switch2.ethg$o[2].channel disabled false
par Red.switch2.ethg$o[2].channel delay 1e-07s
attr unit s
par Red.switch2.ethg$o[2].channel datarate 1e+07bps
attr unit bps
par Red.switch2.ethg$o[2].channel ber 0
par Red.switch2.ethg$o[2].channel per 0
par Red.switch5.ethg$o[1].channel typename "\"red8.Red.cable\""
par Red.switch5.ethg$o[1].channel disabled false
par Red.switch5.ethg$o[1].channel delay 1e-07s
attr unit s
par Red.switch5.ethg$o[1].channel datarate 1e+07bps
attr unit bps
par Red.switch5.ethg$o[1].channel ber 0
par Red.switch5.ethg$o[1].channel per 0
par Red.switch3.ethg$o[2].channel typename "\"red8.Red.cable\""
par Red.switch3.ethg$o[2].channel disabled false
par Red.switch3.ethg$o[2].channel delay 1e-07s
attr unit s
par Red.switch3.ethg$o[2].channel datarate 1e+07bps
attr unit bps
par Red.switch3.ethg$o[2].channel ber 0
par Red.switch3.ethg$o[2].channel per 0
par Red.switch5.ethg$o[2].channel typename "\"red8.Red.cable\""
par Red.switch5.ethg$o[2].channel disabled false
par Red.switch5.ethg$o[2].channel delay 1e-07s
attr unit s
par Red.switch5.ethg$o[2].channel datarate 1e+07bps
attr unit bps
par Red.switch5.ethg$o[2].channel ber 0
par Red.switch5.ethg$o[2].channel per 0
par Red.switch4.ethg$o[2].channel typename "\"red8.Red.cable\""
par Red.switch4.ethg$o[2].channel disabled false
par Red.switch4.ethg$o[2].channel delay 1e-07s
attr unit s
par Red.switch4.ethg$o[2].channel datarate 1e+07bps
attr unit bps
par Red.switch4.ethg$o[2].channel ber 0
par Red.switch4.ethg$o[2].channel per 0
par Red.switch5.ethg$o[3].channel typename "\"red8.Red.cable\""
par Red.switch5.ethg$o[3].channel disabled false
par Red.switch5.ethg$o[3].channel delay 1e-07s
attr unit s
par Red.switch5.ethg$o[3].channel datarate 1e+07bps
attr unit bps
par Red.switch5.ethg$o[3].channel ber 0
par Red.switch5.ethg$o[3].channel per 0
par Red.host1.eth.phys$o.channel typename "\"ned.IdealChannel\""
par Red.host1.ethg$i.channel typename "\"ned.IdealChannel\""
par Red.host1.interfaceTable typename "\"inet.networklayer.common.InterfaceTable\""
par Red.host1.interfaceTable displayAddresses false
par Red.host1.cli typename "\"inet.applications.ethernet.EtherAppClient\""
par Red.host1.cli destAddress "\"host8\""
par Red.host1.cli startTime 0.548814s
attr unit s
par Red.host1.cli stopTime -1s
attr unit s
par Red.host1.cli localSAP 240
par Red.host1.cli remoteSAP 241
par Red.host1.cli sendInterval "uniform(0s, 1s)"
attr unit s
par Red.host1.cli reqLength 100B
attr unit B
par Red.host1.cli respLength 1024B
attr unit B
par Red.host1.cli stopOperationExtraTime -1s
attr unit s
par Red.host1.cli stopOperationTimeout 2s
attr unit s
scalar Red.host1.cli packetReceived:count 0
attr interpolationmode none
attr source packetReceived
attr title "packets received, count"
scalar Red.host1.cli packetReceived:sum(packetBytes) 0
attr interpolationmode none
attr source packetReceived
attr title "packets received, sum(packetBytes)"
statistic Red.host1.cli endToEndDelay:histogram
field count 0
field mean -nan
field stddev -nan
field min -nan
field max -nan
field sum 0
field sqrsum 0
attr interpolationmode none
attr source dataAge(packetReceived)
attr title "end-to-end delay, histogram"
attr unit s
bin	-inf	0
bin	0	0
bin	1	0
scalar Red.host1.cli packetSent:count 1
attr interpolationmode none
attr source packetSent
attr title "packets sent, count"
scalar Red.host1.cli packetSent:sum(packetBytes) 100
attr interpolationmode none
attr source packetSent
attr title "packets sent, sum(packetBytes)"
par Red.host1.srv typename "\"inet.applications.ethernet.EtherAppServer\""
par Red.host1.srv localSAP 241
par Red.host1.srv stopOperationExtraTime -1s
attr unit s
par Red.host1.srv stopOperationTimeout 2s
attr unit s
scalar Red.host1.srv packetReceived:count 0
attr interpolationmode none
attr source packetReceived
attr title "packets received, count"
scalar Red.host1.srv packetReceived:sum(packetBytes) 0
attr interpolationmode none
attr source packetReceived
attr title "packets received, sum(packetBytes)"
statistic Red.host1.srv endToEndDelay:histogram
field count 0
field mean -nan
field stddev -nan
field min -nan
field max -nan
field sum 0
field sqrsum 0
attr interpolationmode none
attr source dataAge(packetReceived)
attr title "end-to-end delay, histogram"
attr unit s
bin	-inf	0
bin	0	0
bin	1	0
scalar Red.host1.srv packetSent:count 0
attr interpolationmode none
attr source packetSent
attr title "packets sent, count"
scalar Red.host1.srv packetSent:sum(packetBytes) 0
attr interpolationmode none
attr source packetSent
attr title "packets sent, sum(packetBytes)"
par Red.host1.dp typename "\"inet.common.MessageDispatcher\""
par Red.host1.dp displayStringTextFormat "\"processed %p pk (%l)\""
par Red.host1.llc typename "\"inet.linklayer.ethernet.basic.EthernetEncapsulation\""
par Red.host1.llc interfaceTableModule "\"Red.host1.interfaceTable\""
par Red.host1.llc useSNAP false
par Red.host1.llc fcsMode "\"declared\""
attr enum declared,computed
par Red.host1.llc registerProtocol true
par Red.host1.llc stopOperationExtraTime -1s
attr unit s
par Red.host1.llc stopOperationTimeout 2s
attr unit s
scalar Red.host1.llc pauseSent:count 0
attr title "pause sent, count"
scalar Red.host1.llc pauseSent:sum 0
attr title "pause sent, sum"
scalar Red.host1.llc decapPk:count 0
attr interpolationmode none
attr source decapPk
attr title "packets decapsulated, count"
scalar Red.host1.llc decapPk:sum(packetBytes) 0
attr interpolationmode none
attr source decapPk
attr title "packets decapsulated, sum(packetBytes)"
scalar Red.host1.llc encapPk:count 1
attr interpolationmode none
attr source encapPk
attr title "packets encapsulated, count"
scalar Red.host1.llc encapPk:sum(packetBytes) 100
attr interpolationmode none
attr source encapPk
attr title "packets encapsulated, sum(packetBytes)"
par Red.host1.eth.mac.phys$o.channel typename "\"ned.IdealChannel\""
par Red.host1.eth.phys$i.channel typename "\"ned.IdealChannel\""
par Red.host1.eth.mac.queue typename "\"inet.linklayer.ethernet.common.EthernetQueue\""
par Red.host1.eth.mac.queue displayStringTextFormat "\"contains %p pk (%l) pushed %u\\npulled %o removed %r dropped %d\""
par Red.host1.eth.mac.queue packetCapacity 10000
par Red.host1.eth.mac.queue dataCapacity -1b
attr unit b
par Red.host1.eth.mac.queue dropperClass "\"inet::queueing::PacketAtCollectionEndDropper\""
par Red.host1.eth.mac.queue comparatorClass "\"inet::EthernetFrameTypeComparator\""
par Red.host1.eth.mac.queue bufferModule "\"\""
scalar Red.host1.eth.mac.queue packetPulled:count 1
attr interpolationmode none
attr title "packet pulled, count"
scalar Red.host1.eth.mac.queue packetPulled:sum(packetBytes) 121
attr interpolationmode none
attr title "packet pulled, sum(packetBytes)"
statistic Red.host1.eth.mac.queue queueingTime:histogram
field count 1
field mean 0
field stddev -nan
field min 0
field max 0
field sum 0
field sqrsum 0
attr interpolationmode none
attr source queueingTime(packetPulled)
attr title "queueing times, histogram"
attr unit s
bin	-inf	0
bin	-0.5	0
bin	-0.48	0
bin	-0.46	0
bin	-0.44	0
bin	-0.42	0
bin	-0.4	0
bin	-0.38	0
bin	-0.36	0
bin	-0.34	0
bin	-0.32	0
bin	-0.3	0
bin	-0.28	0
bin	-0.26	0
bin	-0.24	0
bin	-0.22	0
bin	-0.2	0
bin	-0.18	0
bin	-0.16	0
bin	-0.14	0
bin	-0.12	0
bin	-0.1	0
bin	-0.08	0
bin	-0.06	0
bin	-0.04	0
bin	-0.02	0
bin	0	1
bin	0.02	0
bin	0.04	0
bin	0.06	0
bin	0.08	0
bin	0.1	0
bin	0.12	0
bin	0.14	0
bin	0.16	0
bin	0.18	0
bin	0.2	0
bin	0.22	0
bin	0.24	0
bin	0.26	0
bin	0.28	0
bin	0.3	0
bin	0.32	0
bin	0.34	0
bin	0.36	0
bin	0.38	0
bin	0.4	0
bin	0.42	0
bin	0.44	0
bin	0.46	0
bin	0.48	0
bin	0.5	0
scalar Red.host1.eth.mac.queue queueLength:max 1
attr autoWarmupFilter false
attr interpolationmode sample-hold
attr source "warmup(count(packetPushed) - count(packetPulled) - count(packetRemoved) - count(packetDropped))"
attr title "queue length, max"
attr type int
scalar Red.host1.eth.mac.queue queueLength:timeavg 0
attr autoWarmupFilter false
attr interpolationmode sample-hold
attr source "warmup(count(packetPushed) - count(packetPulled) - count(packetRemoved) - count(packetDropped))"
attr title "queue length, timeavg"
attr type int
scalar Red.host1.eth.mac.queue packetPushed:count 1
attr interpolationmode none
attr title "packet pushed, count"
scalar Red.host1.eth.mac.queue packetPushed:sum(packetBytes) 121
attr interpolationmode none
attr title "packet pushed, sum(packetBytes)"
scalar Red.host1.eth.mac.queue packetDropQueueOverflow:count 0
attr interpolationmode none
attr source packetDropReasonIsQueueOverflow(packetDropped)
attr title "packet drops: queue overflow, count"
scalar Red.host1.eth.mac.queue packetDropQueueOverflow:sum(packetBytes) 0
attr interpolationmode none
attr source packetDropReasonIsQueueOverflow(packetDropped)
attr title "packet drops: queue overflow, sum(packetBytes)"
scalar Red.host1.eth.mac.queue packetRemoved:count 0
attr interpolationmode none
attr title "packets removed, count"
scalar Red.host1.eth.mac.queue packetRemoved:sum(packetBytes) 0
attr interpolationmode none
attr title "packets removed, sum(packetBytes)"
par Red.host1.eth.mac typename "\"inet.linklayer.ethernet.basic.EthernetCsmaMac\""
par Red.host1.eth.mac interfaceTableModule "\"Red.host1.interfaceTable\""
par Red.host1.eth.mac displayStringTextFormat "\"rate: %b\\nsent: %s, rcvd: %r\\nqueue: %q, drop: %d\""
par Red.host1.eth.mac sendRawBytes false
par Red.host1.eth.mac promiscuous false
par Red.host1.eth.mac duplexMode true
par Red.host1.eth.mac frameBursting true
par Red.host1.eth.mac mtu 1500B
attr unit B
par Red.host1.eth.mac stopOperationExtraTime -1s
attr unit s
par Red.host1.eth.mac stopOperationTimeout 2s
attr unit s
scalar Red.host1.eth.mac "simulated time" 0.552269635347
scalar Red.host1.eth.mac full-duplex 1
scalar Red.host1.eth.mac "frames/sec sent" 1.8107097258238
scalar Red.host1.eth.mac "frames/sec rcvd" 0
scalar Red.host1.eth.mac "bits/sec sent" 1752.7670145975
scalar Red.host1.eth.mac "bits/sec rcvd" 0
scalar Red.host1.eth.mac "rx channel idle (%)" 100
scalar Red.host1.eth.mac "rx channel utilization (%)" 0
scalar Red.host1.eth.mac "rx channel collision (%)" 0
scalar Red.host1.eth.mac collisions 0
scalar Red.host1.eth.mac backoffs 0
scalar Red.host1.eth.mac backoffSlotsGenerated:count 0
attr interpolationmode none
attr title "backoff, count"
scalar Red.host1.eth.mac collision:count 0
attr interpolationmode none
attr title "collision, count"
scalar Red.host1.eth.mac rxPausePkUnits:count 0
attr interpolationmode none
attr title "pause units received, count"
scalar Red.host1.eth.mac rxPausePkUnits:sum 0
attr interpolationmode none
attr title "pause units received, sum"
scalar Red.host1.eth.mac txPausePkUnits:count 0
attr interpolationmode none
attr title "pause units sent, count"
scalar Red.host1.eth.mac txPausePkUnits:sum 0
attr interpolationmode none
attr title "pause units sent, sum"
scalar Red.host1.eth.mac rxPkOk:count 0
attr interpolationmode none
attr source rxPkOk
attr title "packets received OK, count"
scalar Red.host1.eth.mac rxPkOk:sum(packetBytes) 0
attr interpolationmode none
attr source rxPkOk
attr title "packets received OK, sum(packetBytes)"
scalar Red.host1.eth.mac txPk:count 1
attr interpolationmode none
attr source packetSentToLower
attr title "packets transmitted, count"
scalar Red.host1.eth.mac txPk:sum(packetBytes) 121
attr interpolationmode none
attr source packetSentToLower
attr title "packets transmitted, sum(packetBytes)"
scalar Red.host1.eth.mac packetReceivedFromUpper:count 1
attr interpolationmode none
attr source packetReceivedFromUpper
attr title "packet bytes from higher layer, count"
scalar Red.host1.eth.mac packetReceivedFromUpper:sum(packetBytes) 121
attr interpolationmode none
attr source packetReceivedFromUpper
attr title "packet bytes from higher layer, sum(packetBytes)"
scalar Red.host1.eth.mac passedUpPk:count 0
attr interpolationmode none
attr source packetSentToUpper
attr title "packets passed to higher layer, count"
scalar Red.host1.eth.mac passedUpPk:sum(packetBytes) 0
attr interpolationmode none
attr source packetSentToUpper
attr title "packets passed to higher layer, sum(packetBytes)"
scalar Red.host1.eth.mac packetDropIncorrectlyReceived:count 0
attr interpolationmode none
attr source packetDropReasonIsIncorrectlyReceived(packetDropped)
attr title "packet drop: incorrectly received, count"
scalar Red.host1.eth.mac packetDropIncorrectlyReceived:sum(packetBytes) 0
attr interpolationmode none
attr source packetDropReasonIsIncorrectlyReceived(packetDropped)
attr title "packet drop: incorrectly received, sum(packetBytes)"
scalar Red.host1.eth.mac packetDropInterfaceDown:count 0
attr interpolationmode none
attr source packetDropReasonIsInterfaceDown(packetDropped)
attr title "packet drop: interface down, count"
scalar Red.host1.eth.mac packetDropInterfaceDown:sum(packetBytes) 0
attr interpolationmode none
attr source packetDropReasonIsInterfaceDown(packetDropped)
attr title "packet drop: interface down, sum(packetBytes)"
scalar Red.host1.eth.mac packetDropNotAddressedToUs:count 0
attr interpolationmode none
attr source packetDropReasonIsNotAddressedToUs(packetDropped)
attr title "packet drop: not addressed to us, count"
scalar Red.host1.eth.mac packetDropNotAddressedToUs:sum(packetBytes) 0
attr interpolationmode none
attr source packetDropReasonIsNotAddressedToUs(packetDropped)
attr title "packet drop: not addressed to us, sum(packetBytes)"
par Red.host1.eth typename "\"inet.linklayer.ethernet.EthernetInterface\""
par Red.host1.eth displayStringTextFormat "\"%a (%i)\\n%m\""
par Red.host1.eth recordPcap false
par Red.host1.eth numPcapRecorders 0
par Red.host1.eth interfaceTableModule "\"Red.host1.interfaceTable\""
par Red.host1.eth address "\"0A-AA-00-00-00-01\""
par Red.host1.eth duplexMode true
par Red.host1.eth csmacdSupport true
par Red.host1.eth bitrate 0bps
attr unit bps
par Red.host1.eth fcsMode "\"declared\""
attr enum declared,computed
par Red.host1 typename "\"inet.node.ethernet.EthernetHost\""
par Red.host1 hasStatus false
par Red.host1 csmacdSupport true
par Red.host1 fcsMode "\"declared\""
attr enum declared,computed
par Red.host2.eth.phys$o.channel typename "\"ned.IdealChannel\""
par Red.host2.ethg$i.channel typename "\"ned.IdealChannel\""
par Red.host2.interfaceTable typename "\"inet.networklayer.common.InterfaceTable\""
par Red.host2.interfaceTable displayAddresses false
par Red.host2.cli typename "\"inet.applications.ethernet.EtherAppClient\""
par Red.host2.cli destAddress "\"\""
par Red.host2.cli startTime 0.592845s
attr unit s
par Red.host2.cli stopTime -1s
attr unit s
par Red.host2.cli localSAP 240
par Red.host2.cli remoteSAP 241
par Red.host2.cli sendInterval "uniform(0s, 1s)"
attr unit s
par Red.host2.cli reqLength 100B
attr unit B
par Red.host2.cli respLength 1024B
attr unit B
par Red.host2.cli stopOperationExtraTime -1s
attr unit s
par Red.host2.cli stopOperationTimeout 2s
attr unit s
scalar Red.host2.cli packetReceived:count 0
attr interpolationmode none
attr source packetReceived
attr title "packets received, count"
scalar Red.host2.cli packetReceived:sum(packetBytes) 0
attr interpolationmode none
attr source packetReceived
attr title "packets received, sum(packetBytes)"
statistic Red.host2.cli endToEndDelay:histogram
field count 0
field mean -nan
field stddev -nan
field min -nan
field max -nan
field sum 0
field sqrsum 0
attr interpolationmode none
attr source dataAge(packetReceived)
attr title "end-to-end delay, histogram"
attr unit s
bin	-inf	0
bin	0	0
bin	1	0
scalar Red.host2.cli packetSent:count 0
attr interpolationmode none
attr source packetSent
attr title "packets sent, count"
scalar Red.host2.cli packetSent:sum(packetBytes) 0
attr interpolationmode none
attr source packetSent
attr title "packets sent, sum(packetBytes)"
par Red.host2.srv typename "\"inet.applications.ethernet.EtherAppServer\""
par Red.host2.srv localSAP 241
par Red.host2.srv stopOperationExtraTime -1s
attr unit s
par Red.host2.srv stopOperationTimeout 2s
attr unit s
scalar Red.host2.srv packetReceived:count 0
attr interpolationmode none
attr source packetReceived
attr title "packets received, count"
scalar Red.host2.srv packetReceived:sum(packetBytes) 0
attr interpolationmode none
attr source packetReceived
attr title "packets received, sum(packetBytes)"
statistic Red.host2.srv endToEndDelay:histogram
field count 0
field mean -nan
field stddev -nan
field min -nan
field max -nan
field sum 0
field sqrsum 0
attr interpolationmode none
attr source dataAge(packetReceived)
attr title "end-to-end delay, histogram"
attr unit s
bin	-inf	0
bin	0	0
bin	1	0
scalar Red.host2.srv packetSent:count 0
attr interpolationmode none
attr source packetSent
attr title "packets sent, count"
scalar Red.host2.srv packetSent:sum(packetBytes) 0
attr interpolationmode none
attr source packetSent
attr title "packets sent, sum(packetBytes)"
par Red.host2.dp typename "\"inet.common.MessageDispatcher\""
par Red.host2.dp displayStringTextFormat "\"processed %p pk (%l)\""
par Red.host2.llc typename "\"inet.linklayer.ethernet.basic.EthernetEncapsulation\""
par Red.host2.llc interfaceTableModule "\"Red.host2.interfaceTable\""
par Red.host2.llc useSNAP false
par Red.host2.llc fcsMode "\"declared\""
attr enum declared,computed
par Red.host2.llc registerProtocol true
par Red.host2.llc stopOperationExtraTime -1s
attr unit s
par Red.host2.llc stopOperationTimeout 2s
attr unit s
scalar Red.host2.llc pauseSent:count 0
attr title "pause sent, count"
scalar Red.host2.llc pauseSent:sum 0
attr title "pause sent, sum"
scalar Red.host2.llc decapPk:count 0
attr interpolationmode none
attr source decapPk
attr title "packets decapsulated, count"
scalar Red.host2.llc decapPk:sum(packetBytes) 0
attr interpolationmode none
attr source decapPk
attr title "packets decapsulated, sum(packetBytes)"
scalar Red.host2.llc encapPk:count 0
attr interpolationmode none
attr source encapPk
attr title "packets encapsulated, count"
scalar Red.host2.llc encapPk:sum(packetBytes) 0
attr interpolationmode none
attr source encapPk
attr title "packets encapsulated, sum(packetBytes)"
par Red.host2.eth.mac.phys$o.channel typename "\"ned.IdealChannel\""
par Red.host2.eth.phys$i.channel typename "\"ned.IdealChannel\""
par Red.host2.eth.mac.queue typename "\"inet.linklayer.ethernet.common.EthernetQueue\""
par Red.host2.eth.mac.queue displayStringTextFormat "\"contains %p pk (%l) pushed %u\\npulled %o removed %r dropped %d\""
par Red.host2.eth.mac.queue packetCapacity 10000
par Red.host2.eth.mac.queue dataCapacity -1b
attr unit b
par Red.host2.eth.mac.queue dropperClass "\"inet::queueing::PacketAtCollectionEndDropper\""
par Red.host2.eth.mac.queue comparatorClass "\"inet::EthernetFrameTypeComparator\""
par Red.host2.eth.mac.queue bufferModule "\"\""
scalar Red.host2.eth.mac.queue packetPulled:count 0
attr interpolationmode none
attr title "packet pulled, count"
scalar Red.host2.eth.mac.queue packetPulled:sum(packetBytes) 0
attr interpolationmode none
attr title "packet pulled, sum(packetBytes)"
statistic Red.host2.eth.mac.queue queueingTime:histogram
field count 0
field mean -nan
field stddev -nan
field min -nan
field max -nan
field sum 0
field sqrsum 0
attr interpolationmode none
attr source queueingTime(packetPulled)
attr title "queueing times, histogram"
attr unit s
bin	-inf	0
bin	0	0
bin	1	0
scalar Red.host2.eth.mac.queue queueLength:max -nan
attr autoWarmupFilter false
attr interpolationmode sample-hold
attr source "warmup(count(packetPushed) - count(packetPulled) - count(packetRemoved) - count(packetDropped))"
attr title "queue length, max"
attr type int
scalar Red.host2.eth.mac.queue queueLength:timeavg -nan
attr autoWarmupFilter false
attr interpolationmode sample-hold
attr source "warmup(count(packetPushed) - count(packetPulled) - count(packetRemoved) - count(packetDropped))"
attr title "queue length, timeavg"
attr type int
scalar Red.host2.eth.mac.queue packetPushed:count 0
attr interpolationmode none
attr title "packet pushed, count"
scalar Red.host2.eth.mac.queue packetPushed:sum(packetBytes) 0
attr interpolationmode none
attr title "packet pushed, sum(packetBytes)"
scalar Red.host2.eth.mac.queue packetDropQueueOverflow:count 0
attr interpolationmode none
attr source packetDropReasonIsQueueOverflow(packetDropped)
attr title "packet drops: queue overflow, count"
scalar Red.host2.eth.mac.queue packetDropQueueOverflow:sum(packetBytes) 0
attr interpolationmode none
attr source packetDropReasonIsQueueOverflow(packetDropped)
attr title "packet drops: queue overflow, sum(packetBytes)"
scalar Red.host2.eth.mac.queue packetRemoved:count 0
attr interpolationmode none
attr title "packets removed, count"
scalar Red.host2.eth.mac.queue packetRemoved:sum(packetBytes) 0
attr interpolationmode none
attr title "packets removed, sum(packetBytes)"
par Red.host2.eth.mac typename "\"inet.linklayer.ethernet.basic.EthernetCsmaMac\""
par Red.host2.eth.mac interfaceTableModule "\"Red.host2.interfaceTable\""
par Red.host2.eth.mac displayStringTextFormat "\"rate: %b\\nsent: %s, rcvd: %r\\nqueue: %q, drop: %d\""
par Red.host2.eth.mac sendRawBytes false
par Red.host2.eth.mac promiscuous false
par Red.host2.eth.mac duplexMode true
par Red.host2.eth.mac frameBursting true
par Red.host2.eth.mac mtu 1500B
attr unit B
par Red.host2.eth.mac stopOperationExtraTime -1s
attr unit s
par Red.host2.eth.mac stopOperationTimeout 2s
attr unit s
scalar Red.host2.eth.mac "simulated time" 0.552269635347
scalar Red.host2.eth.mac full-duplex 1
scalar Red.host2.eth.mac "frames/sec sent" 0
scalar Red.host2.eth.mac "frames/sec rcvd" 0
scalar Red.host2.eth.mac "bits/sec sent" 0
scalar Red.host2.eth.mac "bits/sec rcvd" 0
scalar Red.host2.eth.mac "rx channel idle (%)" 99.981313475629
scalar Red.host2.eth.mac "rx channel utilization (%)" 0.018686524370502
scalar Red.host2.eth.mac "rx channel collision (%)" 0
scalar Red.host2.eth.mac collisions 0
scalar Red.host2.eth.mac backoffs 0
scalar Red.host2.eth.mac backoffSlotsGenerated:count 0
attr interpolationmode none
attr title "backoff, count"
scalar Red.host2.eth.mac collision:count 0
attr interpolationmode none
attr title "collision, count"
scalar Red.host2.eth.mac rxPausePkUnits:count 0
attr interpolationmode none
attr title "pause units received, count"
scalar Red.host2.eth.mac rxPausePkUnits:sum 0
attr interpolationmode none
attr title "pause units received, sum"
scalar Red.host2.eth.mac txPausePkUnits:count 0
attr interpolationmode none
attr title "pause units sent, count"
scalar Red.host2.eth.mac txPausePkUnits:sum 0
attr interpolationmode none
attr title "pause units sent, sum"
scalar Red.host2.eth.mac rxPkOk:count 0
attr interpolationmode none
attr source rxPkOk
attr title "packets received OK, count"
scalar Red.host2.eth.mac rxPkOk:sum(packetBytes) 0
attr interpolationmode none
attr source rxPkOk
attr title "packets received OK, sum(packetBytes)"
scalar Red.host2.eth.mac txPk:count 0
attr interpolationmode none
attr source packetSentToLower
attr title "packets transmitted, count"
scalar Red.host2.eth.mac txPk:sum(packetBytes) 0
attr interpolationmode none
attr source packetSentToLower
attr title "packets transmitted, sum(packetBytes)"
scalar Red.host2.eth.mac packetReceivedFromUpper:count 0
attr interpolationmode none
attr source packetReceivedFromUpper
attr title "packet bytes from higher layer, count"
scalar Red.host2.eth.mac packetReceivedFromUpper:sum(packetBytes) 0
attr interpolationmode none
attr source packetReceivedFromUpper
attr title "packet bytes from higher layer, sum(packetBytes)"
scalar Red.host2.eth.mac passedUpPk:count 0
attr interpolationmode none
attr source packetSentToUpper
attr title "packets passed to higher layer, count"
scalar Red.host2.eth.mac passedUpPk:sum(packetBytes) 0
attr interpolationmode none
attr source packetSentToUpper
attr title "packets passed to higher layer, sum(packetBytes)"
scalar Red.host2.eth.mac packetDropIncorrectlyReceived:count 0
attr interpolationmode none
attr source packetDropReasonIsIncorrectlyReceived(packetDropped)
attr title "packet drop: incorrectly received, count"
scalar Red.host2.eth.mac packetDropIncorrectlyReceived:sum(packetBytes) 0
attr interpolationmode none
attr source packetDropReasonIsIncorrectlyReceived(packetDropped)
attr title "packet drop: incorrectly received, sum(packetBytes)"
scalar Red.host2.eth.mac packetDropInterfaceDown:count 0
attr interpolationmode none
attr source packetDropReasonIsInterfaceDown(packetDropped)
attr title "packet drop: interface down, count"
scalar Red.host2.eth.mac packetDropInterfaceDown:sum(packetBytes) 0
attr interpolationmode none
attr source packetDropReasonIsInterfaceDown(packetDropped)
attr title "packet drop: interface down, sum(packetBytes)"
scalar Red.host2.eth.mac packetDropNotAddressedToUs:count 1
attr interpolationmode none
attr source packetDropReasonIsNotAddressedToUs(packetDropped)
attr title "packet drop: not addressed to us, count"
scalar Red.host2.eth.mac packetDropNotAddressedToUs:sum(packetBytes) 121
attr interpolationmode none
attr source packetDropReasonIsNotAddressedToUs(packetDropped)
attr title "packet drop: not addressed to us, sum(packetBytes)"
par Red.host2.eth typename "\"inet.linklayer.ethernet.EthernetInterface\""
par Red.host2.eth displayStringTextFormat "\"%a (%i)\\n%m\""
par Red.host2.eth recordPcap false
par Red.host2.eth numPcapRecorders 0
par Red.host2.eth interfaceTableModule "\"Red.host2.interfaceTable\""
par Red.host2.eth address "\"0A-AA-00-00-00-02\""
par Red.host2.eth duplexMode true
par Red.host2.eth csmacdSupport true
par Red.host2.eth bitrate 0bps
attr unit bps
par Red.host2.eth fcsMode "\"declared\""
attr enum declared,computed
par Red.host2 typename "\"inet.node.ethernet.EthernetHost\""
par Red.host2 hasStatus false
par Red.host2 csmacdSupport true
par Red.host2 fcsMode "\"declared\""
attr enum declared,computed
par Red.host3.eth.phys$o.channel typename "\"ned.IdealChannel\""
par Red.host3.ethg$i.channel typename "\"ned.IdealChannel\""
par Red.host3.interfaceTable typename "\"inet.networklayer.common.InterfaceTable\""
par Red.host3.interfaceTable displayAddresses false
par Red.host3.cli typename "\"inet.applications.ethernet.EtherAppClient\""
par Red.host3.cli destAddress "\"\""
par Red.host3.cli startTime 0.715189s
attr unit s
par Red.host3.cli stopTime -1s
attr unit s
par Red.host3.cli localSAP 240
par Red.host3.cli remoteSAP 241
par Red.host3.cli sendInterval "uniform(0s, 1s)"
attr unit s
par Red.host3.cli reqLength 100B
attr unit B
par Red.host3.cli respLength 1024B
attr unit B
par Red.host3.cli stopOperationExtraTime -1s
attr unit s
par Red.host3.cli stopOperationTimeout 2s
attr unit s
scalar Red.host3.cli packetReceived:count 0
attr interpolationmode none
attr source packetReceived
attr title "packets received, count"
scalar Red.host3.cli packetReceived:sum(packetBytes) 0
attr interpolationmode none
attr source packetReceived
attr title "packets received, sum(packetBytes)"
statistic Red.host3.cli endToEndDelay:histogram
field count 0
field mean -nan
field stddev -nan
field min -nan
field max -nan
field sum 0
field sqrsum 0
attr interpolationmode none
attr source dataAge(packetReceived)
attr title "end-to-end delay, histogram"
attr unit s
bin	-inf	0
bin	0	0
bin	1	0
scalar Red.host3.cli packetSent:count 0
attr interpolationmode none
attr source packetSent
attr title "packets sent, count"
scalar Red.host3.cli packetSent:sum(packetBytes) 0
attr interpolationmode none
attr source packetSent
attr title "packets sent, sum(packetBytes)"
par Red.host3.srv typename "\"inet.applications.ethernet.EtherAppServer\""
par Red.host3.srv localSAP 241
par Red.host3.srv stopOperationExtraTime -1s
attr unit s
par Red.host3.srv stopOperationTimeout 2s
attr unit s
scalar Red.host3.srv packetReceived:count 0
attr interpolationmode none
attr source packetReceived
attr title "packets received, count"
scalar Red.host3.srv packetReceived:sum(packetBytes) 0
attr interpolationmode none
attr source packetReceived
attr title "packets received, sum(packetBytes)"
statistic Red.host3.srv endToEndDelay:histogram
field count 0
field mean -nan
field stddev -nan
field min -nan
field max -nan
field sum 0
field sqrsum 0
attr interpolationmode none
attr source dataAge(packetReceived)
attr title "end-to-end delay, histogram"
attr unit s
bin	-inf	0
bin	0	0
bin	1	0
scalar Red.host3.srv packetSent:count 0
attr interpolationmode none
attr source packetSent
attr title "packets sent, count"
scalar Red.host3.srv packetSent:sum(packetBytes) 0
attr interpolationmode none
attr source packetSent
attr title "packets sent, sum(packetBytes)"
par Red.host3.dp typename "\"inet.common.MessageDispatcher\""
par Red.host3.dp displayStringTextFormat "\"processed %p pk (%l)\""
par Red.host3.llc typename "\"inet.linklayer.ethernet.basic.EthernetEncapsulation\""
par Red.host3.llc interfaceTableModule "\"Red.host3.interfaceTable\""
par Red.host3.llc useSNAP false
par Red.host3.llc fcsMode "\"declared\""
attr enum declared,computed
par Red.host3.llc registerProtocol true
par Red.host3.llc stopOperationExtraTime -1s
attr unit s
par Red.host3.llc stopOperationTimeout 2s
attr unit s
scalar Red.host3.llc pauseSent:count 0
attr title "pause sent, count"
scalar Red.host3.llc pauseSent:sum 0
attr title "pause sent, sum"
scalar Red.host3.llc decapPk:count 0
attr interpolationmode none
attr source decapPk
attr title "packets decapsulated, count"
scalar Red.host3.llc decapPk:sum(packetBytes) 0
attr interpolationmode none
attr source decapPk
attr title "packets decapsulated, sum(packetBytes)"
scalar Red.host3.llc encapPk:count 0
attr interpolationmode none
attr source encapPk
attr title "packets encapsulated, count"
scalar Red.host3.llc encapPk:sum(packetBytes) 0
attr interpolationmode none
attr source encapPk
attr title "packets encapsulated, sum(packetBytes)"
par Red.host3.eth.mac.phys$o.channel typename "\"ned.IdealChannel\""
par Red.host3.eth.phys$i.channel typename "\"ned.IdealChannel\""
par Red.host3.eth.mac.queue typename "\"inet.linklayer.ethernet.common.EthernetQueue\""
par Red.host3.eth.mac.queue displayStringTextFormat "\"contains %p pk (%l) pushed %u\\npulled %o removed %r dropped %d\""
par Red.host3.eth.mac.queue packetCapacity 10000
par Red.host3.eth.mac.queue dataCapacity -1b
attr unit b
par Red.host3.eth.mac.queue dropperClass "\"inet::queueing::PacketAtCollectionEndDropper\""
par Red.host3.eth.mac.queue comparatorClass "\"inet::EthernetFrameTypeComparator\""
par Red.host3.eth.mac.queue bufferModule "\"\""
scalar Red.host3.eth.mac.queue packetPulled:count 0
attr interpolationmode none
attr title "packet pulled, count"
scalar Red.host3.eth.mac.queue packetPulled:sum(packetBytes) 0
attr interpolationmode none
attr title "packet pulled, sum(packetBytes)"
statistic Red.host3.eth.mac.queue queueingTime:histogram
field count 0
field mean -nan
field stddev -nan
field min -nan
field max -nan
field sum 0
field sqrsum 0
attr interpolationmode none
attr source queueingTime(packetPulled)
attr title "queueing times, histogram"
attr unit s
bin	-inf	0
bin	0	0
bin	1	0
scalar Red.host3.eth.mac.queue queueLength:max -nan
attr autoWarmupFilter false
attr interpolationmode sample-hold
attr source "warmup(count(packetPushed) - count(packetPulled) - count(packetRemoved) - count(packetDropped))"
attr title "queue length, max"
attr type int
scalar Red.host3.eth.mac.queue queueLength:timeavg -nan
attr autoWarmupFilter false
attr interpolationmode sample-hold
attr source "warmup(count(packetPushed) - count(packetPulled) - count(packetRemoved) - count(packetDropped))"
attr title "queue length, timeavg"
attr type int
scalar Red.host3.eth.mac.queue packetPushed:count 0
attr interpolationmode none
attr title "packet pushed, count"
scalar Red.host3.eth.mac.queue packetPushed:sum(packetBytes) 0
attr interpolationmode none
attr title "packet pushed, sum(packetBytes)"
scalar Red.host3.eth.mac.queue packetDropQueueOverflow:count 0
attr interpolationmode none
attr source packetDropReasonIsQueueOverflow(packetDropped)
attr title "packet drops: queue overflow, count"
scalar Red.host3.eth.mac.queue packetDropQueueOverflow:sum(packetBytes) 0
attr interpolationmode none
attr source packetDropReasonIsQueueOverflow(packetDropped)
attr title "packet drops: queue overflow, sum(packetBytes)"
scalar Red.host3.eth.mac.queue packetRemoved:count 0
attr interpolationmode none
attr title "packets removed, count"
scalar Red.host3.eth.mac.queue packetRemoved:sum(packetBytes) 0
attr interpolationmode none
attr title "packets removed, sum(packetBytes)"
par Red.host3.eth.mac typename "\"inet.linklayer.ethernet.basic.EthernetCsmaMac\""
par Red.host3.eth.mac interfaceTableModule "\"Red.host3.interfaceTable\""
par Red.host3.eth.mac displayStringTextFormat "\"rate: %b\\nsent: %s, rcvd: %r\\nqueue: %q, drop: %d\""
par Red.host3.eth.mac sendRawBytes false
par Red.host3.eth.mac promiscuous false
par Red.host3.eth.mac duplexMode true
par Red.host3.eth.mac frameBursting true
par Red.host3.eth.mac mtu 1500B
attr unit B
par Red.host3.eth.mac stopOperationExtraTime -1s
attr unit s
par Red.host3.eth.mac stopOperationTimeout 2s
attr unit s
scalar Red.host3.eth.mac "simulated time" 0.552269635347
scalar Red.host3.eth.mac full-duplex 1
scalar Red.host3.eth.mac "frames/sec sent" 0
scalar Red.host3.eth.mac "frames/sec rcvd" 0
scalar Red.host3.eth.mac "bits/sec sent" 0
scalar Red.host3.eth.mac "bits/sec rcvd" 0
scalar Red.host3.eth.mac "rx channel idle (%)" 99.981313475629
scalar Red.host3.eth.mac "rx channel utilization (%)" 0.018686524370502
scalar Red.host3.eth.mac "rx channel collision (%)" 0
scalar Red.host3.eth.mac collisions 0
scalar Red.host3.eth.mac backoffs 0
scalar Red.host3.eth.mac backoffSlotsGenerated:count 0
attr interpolationmode none
attr title "backoff, count"
scalar Red.host3.eth.mac collision:count 0
attr interpolationmode none
attr title "collision, count"
scalar Red.host3.eth.mac rxPausePkUnits:count 0
attr interpolationmode none
attr title "pause units received, count"
scalar Red.host3.eth.mac rxPausePkUnits:sum 0
attr interpolationmode none
attr title "pause units received, sum"
scalar Red.host3.eth.mac txPausePkUnits:count 0
attr interpolationmode none
attr title "pause units sent, count"
scalar Red.host3.eth.mac txPausePkUnits:sum 0
attr interpolationmode none
attr title "pause units sent, sum"
scalar Red.host3.eth.mac rxPkOk:count 0
attr interpolationmode none
attr source rxPkOk
attr title "packets received OK, count"
scalar Red.host3.eth.mac rxPkOk:sum(packetBytes) 0
attr interpolationmode none
attr source rxPkOk
attr title "packets received OK, sum(packetBytes)"
scalar Red.host3.eth.mac txPk:count 0
attr interpolationmode none
attr source packetSentToLower
attr title "packets transmitted, count"
scalar Red.host3.eth.mac txPk:sum(packetBytes) 0
attr interpolationmode none
attr source packetSentToLower
attr title "packets transmitted, sum(packetBytes)"
scalar Red.host3.eth.mac packetReceivedFromUpper:count 0
attr interpolationmode none
attr source packetReceivedFromUpper
attr title "packet bytes from higher layer, count"
scalar Red.host3.eth.mac packetReceivedFromUpper:sum(packetBytes) 0
attr interpolationmode none
attr source packetReceivedFromUpper
attr title "packet bytes from higher layer, sum(packetBytes)"
scalar Red.host3.eth.mac passedUpPk:count 0
attr interpolationmode none
attr source packetSentToUpper
attr title "packets passed to higher layer, count"
scalar Red.host3.eth.mac passedUpPk:sum(packetBytes) 0
attr interpolationmode none
attr source packetSentToUpper
attr title "packets passed to higher layer, sum(packetBytes)"
scalar Red.host3.eth.mac packetDropIncorrectlyReceived:count 0
attr interpolationmode none
attr source packetDropReasonIsIncorrectlyReceived(packetDropped)
attr title "packet drop: incorrectly received, count"
scalar Red.host3.eth.mac packetDropIncorrectlyReceived:sum(packetBytes) 0
attr interpolationmode none
attr source packetDropReasonIsIncorrectlyReceived(packetDropped)
attr title "packet drop: incorrectly received, sum(packetBytes)"
scalar Red.host3.eth.mac packetDropInterfaceDown:count 0
attr interpolationmode none
attr source packetDropReasonIsInterfaceDown(packetDropped)
attr title "packet drop: interface down, count"
scalar Red.host3.eth.mac packetDropInterfaceDown:sum(packetBytes) 0
attr interpolationmode none
attr source packetDropReasonIsInterfaceDown(packetDropped)
attr title "packet drop: interface down, sum(packetBytes)"
scalar Red.host3.eth.mac packetDropNotAddressedToUs:count 1
attr interpolationmode none
attr source packetDropReasonIsNotAddressedToUs(packetDropped)
attr title "packet drop: not addressed to us, count"
scalar Red.host3.eth.mac packetDropNotAddressedToUs:sum(packetBytes) 121
attr interpolationmode none
attr source packetDropReasonIsNotAddressedToUs(packetDropped)
attr title "packet drop: not addressed to us, sum(packetBytes)"
par Red.host3.eth typename "\"inet.linklayer.ethernet.EthernetInterface\""
par Red.host3.eth displayStringTextFormat "\"%a (%i)\\n%m\""
par Red.host3.eth recordPcap false
par Red.host3.eth numPcapRecorders 0
par Red.host3.eth interfaceTableModule "\"Red.host3.interfaceTable\""
par Red.host3.eth address "\"0A-AA-00-00-00-03\""
par Red.host3.eth duplexMode true
par Red.host3.eth csmacdSupport true
par Red.host3.eth bitrate 0bps
attr unit bps
par Red.host3.eth fcsMode "\"declared\""
attr enum declared,computed
par Red.host3 typename "\"inet.node.ethernet.EthernetHost\""
par Red.host3 hasStatus false
par Red.host3 csmacdSupport true
par Red.host3 fcsMode "\"declared\""
attr enum declared,computed
par Red.host4.eth.phys$o.channel typename "\"ned.IdealChannel\""
par Red.host4.ethg$i.channel typename "\"ned.IdealChannel\""
par Red.host4.interfaceTable typename "\"inet.networklayer.common.InterfaceTable\""
par Red.host4.interfaceTable displayAddresses false
par Red.host4.cli typename "\"inet.applications.ethernet.EtherAppClient\""
par Red.host4.cli destAddress "\"host5\""
par Red.host4.cli startTime 0.844266s
attr unit s
par Red.host4.cli stopTime -1s
attr unit s
par Red.host4.cli localSAP 240
par Red.host4.cli remoteSAP 241
par Red.host4.cli sendInterval "uniform(0s, 1s)"
attr unit s
par Red.host4.cli reqLength 100B
attr unit B
par Red.host4.cli respLength 1024B
attr unit B
par Red.host4.cli stopOperationExtraTime -1s
attr unit s
par Red.host4.cli stopOperationTimeout 2s
attr unit s
scalar Red.host4.cli packetReceived:count 0
attr interpolationmode none
attr source packetReceived
attr title "packets received, count"
scalar Red.host4.cli packetReceived:sum(packetBytes) 0
attr interpolationmode none
attr source packetReceived
attr title "packets received, sum(packetBytes)"
statistic Red.host4.cli endToEndDelay:histogram
field count 0
field mean -nan
field stddev -nan
field min -nan
field max -nan
field sum 0
field sqrsum 0
attr interpolationmode none
attr source dataAge(packetReceived)
attr title "end-to-end delay, histogram"
attr unit s
bin	-inf	0
bin	0	0
bin	1	0
scalar Red.host4.cli packetSent:count 0
attr interpolationmode none
attr source packetSent
attr title "packets sent, count"
scalar Red.host4.cli packetSent:sum(packetBytes) 0
attr interpolationmode none
attr source packetSent
attr title "packets sent, sum(packetBytes)"
par Red.host4.srv typename "\"inet.applications.ethernet.EtherAppServer\""
par Red.host4.srv localSAP 241
par Red.host4.srv stopOperationExtraTime -1s
attr unit s
par Red.host4.srv stopOperationTimeout 2s
attr unit s
scalar Red.host4.srv packetReceived:count 0
attr interpolationmode none
attr source packetReceived
attr title "packets received, count"
scalar Red.host4.srv packetReceived:sum(packetBytes) 0
attr interpolationmode none
attr source packetReceived
attr title "packets received, sum(packetBytes)"
statistic Red.host4.srv endToEndDelay:histogram
field count 0
field mean -nan
field stddev -nan
field min -nan
field max -nan
field sum 0
field sqrsum 0
attr interpolationmode none
attr source dataAge(packetReceived)
attr title "end-to-end delay, histogram"
attr unit s
bin	-inf	0
bin	0	0
bin	1	0
scalar Red.host4.srv packetSent:count 0
attr interpolationmode none
attr source packetSent
attr title "packets sent, count"
scalar Red.host4.srv packetSent:sum(packetBytes) 0
attr interpolationmode none
attr source packetSent
attr title "packets sent, sum(packetBytes)"
par Red.host4.dp typename "\"inet.common.MessageDispatcher\""
par Red.host4.dp displayStringTextFormat "\"processed %p pk (%l)\""
par Red.host4.llc typename "\"inet.linklayer.ethernet.basic.EthernetEncapsulation\""
par Red.host4.llc interfaceTableModule "\"Red.host4.interfaceTable\""
par Red.host4.llc useSNAP false
par Red.host4.llc fcsMode "\"declared\""
attr enum declared,computed
par Red.host4.llc registerProtocol true
par Red.host4.llc stopOperationExtraTime -1s
attr unit s
par Red.host4.llc stopOperationTimeout 2s
attr unit s
scalar Red.host4.llc pauseSent:count 0
attr title "pause sent, count"
scalar Red.host4.llc pauseSent:sum 0
attr title "pause sent, sum"
scalar Red.host4.llc decapPk:count 0
attr interpolationmode none
attr source decapPk
attr title "packets decapsulated, count"
scalar Red.host4.llc decapPk:sum(packetBytes) 0
attr interpolationmode none
attr source decapPk
attr title "packets decapsulated, sum(packetBytes)"
scalar Red.host4.llc encapPk:count 0
attr interpolationmode none
attr source encapPk
attr title "packets encapsulated, count"
scalar Red.host4.llc encapPk:sum(packetBytes) 0
attr interpolationmode none
attr source encapPk
attr title "packets encapsulated, sum(packetBytes)"
par Red.host4.eth.mac.phys$o.channel typename "\"ned.IdealChannel\""
par Red.host4.eth.phys$i.channel typename "\"ned.IdealChannel\""
par Red.host4.eth.mac.queue typename "\"inet.linklayer.ethernet.common.EthernetQueue\""
par Red.host4.eth.mac.queue displayStringTextFormat "\"contains %p pk (%l) pushed %u\\npulled %o removed %r dropped %d\""
par Red.host4.eth.mac.queue packetCapacity 10000
par Red.host4.eth.mac.queue dataCapacity -1b
attr unit b
par Red.host4.eth.mac.queue dropperClass "\"inet::queueing::PacketAtCollectionEndDropper\""
par Red.host4.eth.mac.queue comparatorClass "\"inet::EthernetFrameTypeComparator\""
par Red.host4.eth.mac.queue bufferModule "\"\""
scalar Red.host4.eth.mac.queue packetPulled:count 0
attr interpolationmode none
attr title "packet pulled, count"
scalar Red.host4.eth.mac.queue packetPulled:sum(packetBytes) 0
attr interpolationmode none
attr title "packet pulled, sum(packetBytes)"
statistic Red.host4.eth.mac.queue queueingTime:histogram
field count 0
field mean -nan
field stddev -nan
field min -nan
field max -nan
field sum 0
field sqrsum 0
attr interpolationmode none
attr source queueingTime(packetPulled)
attr title "queueing times, histogram"
attr unit s
bin	-inf	0
bin	0	0
bin	1	0
scalar Red.host4.eth.mac.queue queueLength:max -nan
attr autoWarmupFilter false
attr interpolationmode sample-hold
attr source "warmup(count(packetPushed) - count(packetPulled) - count(packetRemoved) - count(packetDropped))"
attr title "queue length, max"
attr type int
scalar Red.host4.eth.mac.queue queueLength:timeavg -nan
attr autoWarmupFilter false
attr interpolationmode sample-hold
attr source "warmup(count(packetPushed) - count(packetPulled) - count(packetRemoved) - count(packetDropped))"
attr title "queue length, timeavg"
attr type int
scalar Red.host4.eth.mac.queue packetPushed:count 0
attr interpolationmode none
attr title "packet pushed, count"
scalar Red.host4.eth.mac.queue packetPushed:sum(packetBytes) 0
attr interpolationmode none
attr title "packet pushed, sum(packetBytes)"
scalar Red.host4.eth.mac.queue packetDropQueueOverflow:count 0
attr interpolationmode none
attr source packetDropReasonIsQueueOverflow(packetDropped)
attr title "packet drops: queue overflow, count"
scalar Red.host4.eth.mac.queue packetDropQueueOverflow:sum(packetBytes) 0
attr interpolationmode none
attr source packetDropReasonIsQueueOverflow(packetDropped)
attr title "packet drops: queue overflow, sum(packetBytes)"
scalar Red.host4.eth.mac.queue packetRemoved:count 0
attr interpolationmode none
attr title "packets removed, count"
scalar Red.host4.eth.mac.queue packetRemoved:sum(packetBytes) 0
attr interpolationmode none
attr title "packets removed, sum(packetBytes)"
par Red.host4.eth.mac typename "\"inet.linklayer.ethernet.basic.EthernetCsmaMac\""
par Red.host4.eth.mac interfaceTableModule "\"Red.host4.interfaceTable\""
par Red.host4.eth.mac displayStringTextFormat "\"rate: %b\\nsent: %s, rcvd: %r\\nqueue: %q, drop: %d\""
par Red.host4.eth.mac sendRawBytes false
par Red.host4.eth.mac promiscuous false
par Red.host4.eth.mac duplexMode true
par Red.host4.eth.mac frameBursting true
par Red.host4.eth.mac mtu 1500B
attr unit B
par Red.host4.eth.mac stopOperationExtraTime -1s
attr unit s
par Red.host4.eth.mac stopOperationTimeout 2s
attr unit s
scalar Red.host4.eth.mac "simulated time" 0.552269635347
scalar Red.host4.eth.mac full-duplex 1
scalar Red.host4.eth.mac "frames/sec sent" 0
scalar Red.host4.eth.mac "frames/sec rcvd" 0
scalar Red.host4.eth.mac "bits/sec sent" 0
scalar Red.host4.eth.mac "bits/sec rcvd" 0
scalar Red.host4.eth.mac "rx channel idle (%)" 99.981313475629
scalar Red.host4.eth.mac "rx channel utilization (%)" 0.018686524370502
scalar Red.host4.eth.mac "rx channel collision (%)" 0
scalar Red.host4.eth.mac collisions 0
scalar Red.host4.eth.mac backoffs 0
scalar Red.host4.eth.mac backoffSlotsGenerated:count 0
attr interpolationmode none
attr title "backoff, count"
scalar Red.host4.eth.mac collision:count 0
attr interpolationmode none
attr title "collision, count"
scalar Red.host4.eth.mac rxPausePkUnits:count 0
attr interpolationmode none
attr title "pause units received, count"
scalar Red.host4.eth.mac rxPausePkUnits:sum 0
attr interpolationmode none
attr title "pause units received, sum"
scalar Red.host4.eth.mac txPausePkUnits:count 0
attr interpolationmode none
attr title "pause units sent, count"
scalar Red.host4.eth.mac txPausePkUnits:sum 0
attr interpolationmode none
attr title "pause units sent, sum"
scalar Red.host4.eth.mac rxPkOk:count 0
attr interpolationmode none
attr source rxPkOk
attr title "packets received OK, count"
scalar Red.host4.eth.mac rxPkOk:sum(packetBytes) 0
attr interpolationmode none
attr source rxPkOk
attr title "packets received OK, sum(packetBytes)"
scalar Red.host4.eth.mac txPk:count 0
attr interpolationmode none
attr source packetSentToLower
attr title "packets transmitted, count"
scalar Red.host4.eth.mac txPk:sum(packetBytes) 0
attr interpolationmode none
attr source packetSentToLower
attr title "packets transmitted, sum(packetBytes)"
scalar Red.host4.eth.mac packetReceivedFromUpper:count 0
attr interpolationmode none
attr source packetReceivedFromUpper
attr title "packet bytes from higher layer, count"
scalar Red.host4.eth.mac packetReceivedFromUpper:sum(packetBytes) 0
attr interpolationmode none
attr source packetReceivedFromUpper
attr title "packet bytes from higher layer, sum(packetBytes)"
scalar Red.host4.eth.mac passedUpPk:count 0
attr interpolationmode none
attr source packetSentToUpper
attr title "packets passed to higher layer, count"
scalar Red.host4.eth.mac passedUpPk:sum(packetBytes) 0
attr interpolationmode none
attr source packetSentToUpper
attr title "packets passed to higher layer, sum(packetBytes)"
scalar Red.host4.eth.mac packetDropIncorrectlyReceived:count 0
attr interpolationmode none
attr source packetDropReasonIsIncorrectlyReceived(packetDropped)
attr title "packet drop: incorrectly received, count"
scalar Red.host4.eth.mac packetDropIncorrectlyReceived:sum(packetBytes) 0
attr interpolationmode none
attr source packetDropReasonIsIncorrectlyReceived(packetDropped)
attr title "packet drop: incorrectly received, sum(packetBytes)"
scalar Red.host4.eth.mac packetDropInterfaceDown:count 0
attr interpolationmode none
attr source packetDropReasonIsInterfaceDown(packetDropped)
attr title "packet drop: interface down, count"
scalar Red.host4.eth.mac packetDropInterfaceDown:sum(packetBytes) 0
attr interpolationmode none
attr source packetDropReasonIsInterfaceDown(packetDropped)
attr title "packet drop: interface down, sum(packetBytes)"
scalar Red.host4.eth.mac packetDropNotAddressedToUs:count 1
attr interpolationmode none
attr source packetDropReasonIsNotAddressedToUs(packetDropped)
attr title "packet drop: not addressed to us, count"
scalar Red.host4.eth.mac packetDropNotAddressedToUs:sum(packetBytes) 121
attr interpolationmode none
attr source packetDropReasonIsNotAddressedToUs(packetDropped)
attr title "packet drop: not addressed to us, sum(packetBytes)"
par Red.host4.eth typename "\"inet.linklayer.ethernet.EthernetInterface\""
par Red.host4.eth displayStringTextFormat "\"%a (%i)\\n%m\""
par Red.host4.eth recordPcap false
par Red.host4.eth numPcapRecorders 0
par Red.host4.eth interfaceTableModule "\"Red.host4.interfaceTable\""
par Red.host4.eth address "\"0A-AA-00-00-00-04\""
par Red.host4.eth duplexMode true
par Red.host4.eth csmacdSupport true
par Red.host4.eth bitrate 0bps
attr unit bps
par Red.host4.eth fcsMode "\"declared\""
attr enum declared,computed
par Red.host4 typename "\"inet.node.ethernet.EthernetHost\""
par Red.host4 hasStatus false
par Red.host4 csmacdSupport true
par Red.host4 fcsMode "\"declared\""
attr enum declared,computed
par Red.host5.eth.phys$o.channel typename "\"ned.IdealChannel\""
par Red.host5.ethg$i.channel typename "\"ned.IdealChannel\""
par Red.host5.interfaceTable typename "\"inet.networklayer.common.InterfaceTable\""
par Red.host5.interfaceTable displayAddresses false
par Red.host5.cli typename "\"inet.applications.ethernet.EtherAppClient\""
par Red.host5.cli destAddress "\"\""
par Red.host5.cli startTime 0.602763s
attr unit s
par Red.host5.cli stopTime -1s
attr unit s
par Red.host5.cli localSAP 240
par Red.host5.cli remoteSAP 241
par Red.host5.cli sendInterval "uniform(0s, 1s)"
attr unit s
par Red.host5.cli reqLength 100B
attr unit B
par Red.host5.cli respLength 1024B
attr unit B
par Red.host5.cli stopOperationExtraTime -1s
attr unit s
par Red.host5.cli stopOperationTimeout 2s
attr unit s
scalar Red.host5.cli packetReceived:count 0
attr interpolationmode none
attr source packetReceived
attr title "packets received, count"
scalar Red.host5.cli packetReceived:sum(packetBytes) 0
attr interpolationmode none
attr source packetReceived
attr title "packets received, sum(packetBytes)"
statistic Red.host5.cli endToEndDelay:histogram
field count 0
field mean -nan
field stddev -nan
field min -nan
field max -nan
field sum 0
field sqrsum 0
attr interpolationmode none
attr source dataAge(packetReceived)
attr title "end-to-end delay, histogram"
attr unit s
bin	-inf	0
bin	0	0
bin	1	0
scalar Red.host5.cli packetSent:count 0
attr interpolationmode none
attr source packetSent
attr title "packets sent, count"
scalar Red.host5.cli packetSent:sum(packetBytes) 0
attr interpolationmode none
attr source packetSent
attr title "packets sent, sum(packetBytes)"
par Red.host5.srv typename "\"inet.applications.ethernet.EtherAppServer\""
par Red.host5.srv localSAP 241
par Red.host5.srv stopOperationExtraTime -1s
attr unit s
par Red.host5.srv stopOperationTimeout 2s
attr unit s
scalar Red.host5.srv packetReceived:count 0
attr interpolationmode none
attr source packetReceived
attr title "packets received, count"
scalar Red.host5.srv packetReceived:sum(packetBytes) 0
attr interpolationmode none
attr source packetReceived
attr title "packets received, sum(packetBytes)"
statistic Red.host5.srv endToEndDelay:histogram
field count 0
field mean -nan
field stddev -nan
field min -nan
field max -nan
field sum 0
field sqrsum 0
attr interpolationmode none
attr source dataAge(packetReceived)
attr title "end-to-end delay, histogram"
attr unit s
bin	-inf	0
bin	0	0
bin	1	0
scalar Red.host5.srv packetSent:count 0
attr interpolationmode none
attr source packetSent
attr title "packets sent, count"
scalar Red.host5.srv packetSent:sum(packetBytes) 0
attr interpolationmode none
attr source packetSent
attr title "packets sent, sum(packetBytes)"
par Red.host5.dp typename "\"inet.common.MessageDispatcher\""
par Red.host5.dp displayStringTextFormat "\"processed %p pk (%l)\""
par Red.host5.llc typename "\"inet.linklayer.ethernet.basic.EthernetEncapsulation\""
par Red.host5.llc interfaceTableModule "\"Red.host5.interfaceTable\""
par Red.host5.llc useSNAP false
par Red.host5.llc fcsMode "\"declared\""
attr enum declared,computed
par Red.host5.llc registerProtocol true
par Red.host5.llc stopOperationExtraTime -1s
attr unit s
par Red.host5.llc stopOperationTimeout 2s
attr unit s
scalar Red.host5.llc pauseSent:count 0
attr title "pause sent, count"
scalar Red.host5.llc pauseSent:sum 0
attr title "pause sent, sum"
scalar Red.host5.llc decapPk:count 0
attr interpolationmode none
attr source decapPk
attr title "packets decapsulated, count"
scalar Red.host5.llc decapPk:sum(packetBytes) 0
attr interpolationmode none
attr source decapPk
attr title "packets decapsulated, sum(packetBytes)"
scalar Red.host5.llc encapPk:count 0
attr interpolationmode none
attr source encapPk
attr title "packets encapsulated, count"
scalar Red.host5.llc encapPk:sum(packetBytes) 0
attr interpolationmode none
attr source encapPk
attr title "packets encapsulated, sum(packetBytes)"
par Red.host5.eth.mac.phys$o.channel typename "\"ned.IdealChannel\""
par Red.host5.eth.phys$i.channel typename "\"ned.IdealChannel\""
par Red.host5.eth.mac.queue typename "\"inet.linklayer.ethernet.common.EthernetQueue\""
par Red.host5.eth.mac.queue displayStringTextFormat "\"contains %p pk (%l) pushed %u\\npulled %o removed %r dropped %d\""
par Red.host5.eth.mac.queue packetCapacity 10000
par Red.host5.eth.mac.queue dataCapacity -1b
attr unit b
par Red.host5.eth.mac.queue dropperClass "\"inet::queueing::PacketAtCollectionEndDropper\""
par Red.host5.eth.mac.queue comparatorClass "\"inet::EthernetFrameTypeComparator\""
par Red.host5.eth.mac.queue bufferModule "\"\""
scalar Red.host5.eth.mac.queue packetPulled:count 0
attr interpolationmode none
attr title "packet pulled, count"
scalar Red.host5.eth.mac.queue packetPulled:sum(packetBytes) 0
attr interpolationmode none
attr title "packet pulled, sum(packetBytes)"
statistic Red.host5.eth.mac.queue queueingTime:histogram
field count 0
field mean -nan
field stddev -nan
field min -nan
field max -nan
field sum 0
field sqrsum 0
attr interpolationmode none
attr source queueingTime(packetPulled)
attr title "queueing times, histogram"
attr unit s
bin	-inf	0
bin	0	0
bin	1	0
scalar Red.host5.eth.mac.queue queueLength:max -nan
attr autoWarmupFilter false
attr interpolationmode sample-hold
attr source "warmup(count(packetPushed) - count(packetPulled) - count(packetRemoved) - count(packetDropped))"
attr title "queue length, max"
attr type int
scalar Red.host5.eth.mac.queue queueLength:timeavg -nan
attr autoWarmupFilter false
attr interpolationmode sample-hold
attr source "warmup(count(packetPushed) - count(packetPulled) - count(packetRemoved) - count(packetDropped))"
attr title "queue length, timeavg"
attr type int
scalar Red.host5.eth.mac.queue packetPushed:count 0
attr interpolationmode none
attr title "packet pushed, count"
scalar Red.host5.eth.mac.queue packetPushed:sum(packetBytes) 0
attr interpolationmode none
attr title "packet pushed, sum(packetBytes)"
scalar Red.host5.eth.mac.queue packetDropQueueOverflow:count 0
attr interpolationmode none
attr source packetDropReasonIsQueueOverflow(packetDropped)
attr title "packet drops: queue overflow, count"
scalar Red.host5.eth.mac.queue packetDropQueueOverflow:sum(packetBytes) 0
attr interpolationmode none
attr source packetDropReasonIsQueueOverflow(packetDropped)
attr title "packet drops: queue overflow, sum(packetBytes)"
scalar Red.host5.eth.mac.queue packetRemoved:count 0
attr interpolationmode none
attr title "packets removed, count"
scalar Red.host5.eth.mac.queue packetRemoved:sum(packetBytes) 0
attr interpolationmode none
attr title "packets removed, sum(packetBytes)"
par Red.host5.eth.mac typename "\"inet.linklayer.ethernet.basic.EthernetCsmaMac\""
par Red.host5.eth.mac interfaceTableModule "\"Red.host5.interfaceTable\""
par Red.host5.eth.mac displayStringTextFormat "\"rate: %b\\nsent: %s, rcvd: %r\\nqueue: %q, drop: %d\""
par Red.host5.eth.mac sendRawBytes false
par Red.host5.eth.mac promiscuous false
par Red.host5.eth.mac duplexMode true
par Red.host5.eth.mac frameBursting true
par Red.host5.eth.mac mtu 1500B
attr unit B
par Red.host5.eth.mac stopOperationExtraTime -1s
attr unit s
par Red.host5.eth.mac stopOperationTimeout 2s
attr unit s
scalar Red.host5.eth.mac "simulated time" 0.552269635347
scalar Red.host5.eth.mac full-duplex 1
scalar Red.host5.eth.mac "frames/sec sent" 0
scalar Red.host5.eth.mac "frames/sec rcvd" 0
scalar Red.host5.eth.mac "bits/sec sent" 0
scalar Red.host5.eth.mac "bits/sec rcvd" 0
scalar Red.host5.eth.mac "rx channel idle (%)" 99.981313475629
scalar Red.host5.eth.mac "rx channel utilization (%)" 0.018686524370502
scalar Red.host5.eth.mac "rx channel collision (%)" 0
scalar Red.host5.eth.mac collisions 0
scalar Red.host5.eth.mac backoffs 0
scalar Red.host5.eth.mac backoffSlotsGenerated:count 0
attr interpolationmode none
attr title "backoff, count"
scalar Red.host5.eth.mac collision:count 0
attr interpolationmode none
attr title "collision, count"
scalar Red.host5.eth.mac rxPausePkUnits:count 0
attr interpolationmode none
attr title "pause units received, count"
scalar Red.host5.eth.mac rxPausePkUnits:sum 0
attr interpolationmode none
attr title "pause units received, sum"
scalar Red.host5.eth.mac txPausePkUnits:count 0
attr interpolationmode none
attr title "pause units sent, count"
scalar Red.host5.eth.mac txPausePkUnits:sum 0
attr interpolationmode none
attr title "pause units sent, sum"
scalar Red.host5.eth.mac rxPkOk:count 0
attr interpolationmode none
attr source rxPkOk
attr title "packets received OK, count"
scalar Red.host5.eth.mac rxPkOk:sum(packetBytes) 0
attr interpolationmode none
attr source rxPkOk
attr title "packets received OK, sum(packetBytes)"
scalar Red.host5.eth.mac txPk:count 0
attr interpolationmode none
attr source packetSentToLower
attr title "packets transmitted, count"
scalar Red.host5.eth.mac txPk:sum(packetBytes) 0
attr interpolationmode none
attr source packetSentToLower
attr title "packets transmitted, sum(packetBytes)"
scalar Red.host5.eth.mac packetReceivedFromUpper:count 0
attr interpolationmode none
attr source packetReceivedFromUpper
attr title "packet bytes from higher layer, count"
scalar Red.host5.eth.mac packetReceivedFromUpper:sum(packetBytes) 0
attr interpolationmode none
attr source packetReceivedFromUpper
attr title "packet bytes from higher layer, sum(packetBytes)"
scalar Red.host5.eth.mac passedUpPk:count 0
attr interpolationmode none
attr source packetSentToUpper
attr title "packets passed to higher layer, count"
scalar Red.host5.eth.mac passedUpPk:sum(packetBytes) 0
attr interpolationmode none
attr source packetSentToUpper
attr title "packets passed to higher layer, sum(packetBytes)"
scalar Red.host5.eth.mac packetDropIncorrectlyReceived:count 0
attr interpolationmode none
attr source packetDropReasonIsIncorrectlyReceived(packetDropped)
attr title "packet drop: incorrectly received, count"
scalar Red.host5.eth.mac packetDropIncorrectlyReceived:sum(packetBytes) 0
attr interpolationmode none
attr source packetDropReasonIsIncorrectlyReceived(packetDropped)
attr title "packet drop: incorrectly received, sum(packetBytes)"
scalar Red.host5.eth.mac packetDropInterfaceDown:count 0
attr interpolationmode none
attr source packetDropReasonIsInterfaceDown(packetDropped)
attr title "packet drop: interface down, count"
scalar Red.host5.eth.mac packetDropInterfaceDown:sum(packetBytes) 0
attr interpolationmode none
attr source packetDropReasonIsInterfaceDown(packetDropped)
attr title "packet drop: interface down, sum(packetBytes)"
scalar Red.host5.eth.mac packetDropNotAddressedToUs:count 1
attr interpolationmode none
attr source packetDropReasonIsNotAddressedToUs(packetDropped)
attr title "packet drop: not addressed to us, count"
scalar Red.host5.eth.mac packetDropNotAddressedToUs:sum(packetBytes) 121
attr interpolationmode none
attr source packetDropReasonIsNotAddressedToUs(packetDropped)
attr title "packet drop: not addressed to us, sum(packetBytes)"
par Red.host5.eth typename "\"inet.linklayer.ethernet.EthernetInterface\""
par Red.host5.eth displayStringTextFormat "\"%a (%i)\\n%m\""
par Red.host5.eth recordPcap false
par Red.host5.eth numPcapRecorders 0
par Red.host5.eth interfaceTableModule "\"Red.host5.interfaceTable\""
par Red.host5.eth address "\"0A-AA-00-00-00-05\""
par Red.host5.eth duplexMode true
par Red.host5.eth csmacdSupport true
par Red.host5.eth bitrate 0bps
attr unit bps
par Red.host5.eth fcsMode "\"declared\""
attr enum declared,computed
par Red.host5 typename "\"inet.node.ethernet.EthernetHost\""
par Red.host5 hasStatus false
par Red.host5 csmacdSupport true
par Red.host5 fcsMode "\"declared\""
attr enum declared,computed
par Red.host6.eth.phys$o.channel typename "\"ned.IdealChannel\""
par Red.host6.ethg$i.channel typename "\"ned.IdealChannel\""
par Red.host6.interfaceTable typename "\"inet.networklayer.common.InterfaceTable\""
par Red.host6.interfaceTable displayAddresses false
par Red.host6.cli typename "\"inet.applications.ethernet.EtherAppClient\""
par Red.host6.cli destAddress "\"\""
par Red.host6.cli startTime 0.857946s
attr unit s
par Red.host6.cli stopTime -1s
attr unit s
par Red.host6.cli localSAP 240
par Red.host6.cli remoteSAP 241
par Red.host6.cli sendInterval "uniform(0s, 1s)"
attr unit s
par Red.host6.cli reqLength 100B
attr unit B
par Red.host6.cli respLength 1024B
attr unit B
par Red.host6.cli stopOperationExtraTime -1s
attr unit s
par Red.host6.cli stopOperationTimeout 2s
attr unit s
scalar Red.host6.cli packetReceived:count 0
attr interpolationmode none
attr source packetReceived
attr title "packets received, count"
scalar Red.host6.cli packetReceived:sum(packetBytes) 0
attr interpolationmode none
attr source packetReceived
attr title "packets received, sum(packetBytes)"
statistic Red.host6.cli endToEndDelay:histogram
field count 0
field mean -nan
field stddev -nan
field min -nan
field max -nan
field sum 0
field sqrsum 0
attr interpolationmode none
attr source dataAge(packetReceived)
attr title "end-to-end delay, histogram"
attr unit s
bin	-inf	0
bin	0	0
bin	1	0
scalar Red.host6.cli packetSent:count 0
attr interpolationmode none
attr source packetSent
attr title "packets sent, count"
scalar Red.host6.cli packetSent:sum(packetBytes) 0
attr interpolationmode none
attr source packetSent
attr title "packets sent, sum(packetBytes)"
par Red.host6.srv typename "\"inet.applications.ethernet.EtherAppServer\""
par Red.host6.srv localSAP 241
par Red.host6.srv stopOperationExtraTime -1s
attr unit s
par Red.host6.srv stopOperationTimeout 2s
attr unit s
scalar Red.host6.srv packetReceived:count 0
attr interpolationmode none
attr source packetReceived
attr title "packets received, count"
scalar Red.host6.srv packetReceived:sum(packetBytes) 0
attr interpolationmode none
attr source packetReceived
attr title "packets received, sum(packetBytes)"
statistic Red.host6.srv endToEndDelay:histogram
field count 0
field mean -nan
field stddev -nan
field min -nan
field max -nan
field sum 0
field sqrsum 0
attr interpolationmode none
attr source dataAge(packetReceived)
attr title "end-to-end delay, histogram"
attr unit s
bin	-inf	0
bin	0	0
bin	1	0
scalar Red.host6.srv packetSent:count 0
attr interpolationmode none
attr source packetSent
attr title "packets sent, count"
scalar Red.host6.srv packetSent:sum(packetBytes) 0
attr interpolationmode none
attr source packetSent
attr title "packets sent, sum(packetBytes)"
par Red.host6.dp typename "\"inet.common.MessageDispatcher\""
par Red.host6.dp displayStringTextFormat "\"processed %p pk (%l)\""
par Red.host6.llc typename "\"inet.linklayer.ethernet.basic.EthernetEncapsulation\""
par Red.host6.llc interfaceTableModule "\"Red.host6.interfaceTable\""
par Red.host6.llc useSNAP false
par Red.host6.llc fcsMode "\"declared\""
attr enum declared,computed
par Red.host6.llc registerProtocol true
par Red.host6.llc stopOperationExtraTime -1s
attr unit s
par Red.host6.llc stopOperationTimeout 2s
attr unit s
scalar Red.host6.llc pauseSent:count 0
attr title "pause sent, count"
scalar Red.host6.llc pauseSent:sum 0
attr title "pause sent, sum"
scalar Red.host6.llc decapPk:count 0
attr interpolationmode none
attr source decapPk
attr title "packets decapsulated, count"
scalar Red.host6.llc decapPk:sum(packetBytes) 0
attr interpolationmode none
attr source decapPk
attr title "packets decapsulated, sum(packetBytes)"
scalar Red.host6.llc encapPk:count 0
attr interpolationmode none
attr source encapPk
attr title "packets encapsulated, count"
scalar Red.host6.llc encapPk:sum(packetBytes) 0
attr interpolationmode none
attr source encapPk
attr title "packets encapsulated, sum(packetBytes)"
par Red.host6.eth.mac.phys$o.channel typename "\"ned.IdealChannel\""
par Red.host6.eth.phys$i.channel typename "\"ned.IdealChannel\""
par Red.host6.eth.mac.queue typename "\"inet.linklayer.ethernet.common.EthernetQueue\""
par Red.host6.eth.mac.queue displayStringTextFormat "\"contains %p pk (%l) pushed %u\\npulled %o removed %r dropped %d\""
par Red.host6.eth.mac.queue packetCapacity 10000
par Red.host6.eth.mac.queue dataCapacity -1b
attr unit b
par Red.host6.eth.mac.queue dropperClass "\"inet::queueing::PacketAtCollectionEndDropper\""
par Red.host6.eth.mac.queue comparatorClass "\"inet::EthernetFrameTypeComparator\""
par Red.host6.eth.mac.queue bufferModule "\"\""
scalar Red.host6.eth.mac.queue packetPulled:count 0
attr interpolationmode none
attr title "packet pulled, count"
scalar Red.host6.eth.mac.queue packetPulled:sum(packetBytes) 0
attr interpolationmode none
attr title "packet pulled, sum(packetBytes)"
statistic Red.host6.eth.mac.queue queueingTime:histogram
field count 0
field mean -nan
field stddev -nan
field min -nan
field max -nan
field sum 0
field sqrsum 0
attr interpolationmode none
attr source queueingTime(packetPulled)
attr title "queueing times, histogram"
attr unit s
bin	-inf	0
bin	0	0
bin	1	0
scalar Red.host6.eth.mac.queue queueLength:max -nan
attr autoWarmupFilter false
attr interpolationmode sample-hold
attr source "warmup(count(packetPushed) - count(packetPulled) - count(packetRemoved) - count(packetDropped))"
attr title "queue length, max"
attr type int
scalar Red.host6.eth.mac.queue queueLength:timeavg -nan
attr autoWarmupFilter false
attr interpolationmode sample-hold
attr source "warmup(count(packetPushed) - count(packetPulled) - count(packetRemoved) - count(packetDropped))"
attr title "queue length, timeavg"
attr type int
scalar Red.host6.eth.mac.queue packetPushed:count 0
attr interpolationmode none
attr title "packet pushed, count"
scalar Red.host6.eth.mac.queue packetPushed:sum(packetBytes) 0
attr interpolationmode none
attr title "packet pushed, sum(packetBytes)"
scalar Red.host6.eth.mac.queue packetDropQueueOverflow:count 0
attr interpolationmode none
attr source packetDropReasonIsQueueOverflow(packetDropped)
attr title "packet drops: queue overflow, count"
scalar Red.host6.eth.mac.queue packetDropQueueOverflow:sum(packetBytes) 0
attr interpolationmode none
attr source packetDropReasonIsQueueOverflow(packetDropped)
attr title "packet drops: queue overflow, sum(packetBytes)"
scalar Red.host6.eth.mac.queue packetRemoved:count 0
attr interpolationmode none
attr title "packets removed, count"
scalar Red.host6.eth.mac.queue packetRemoved:sum(packetBytes) 0
attr interpolationmode none
attr title "packets removed, sum(packetBytes)"
par Red.host6.eth.mac typename "\"inet.linklayer.ethernet.basic.EthernetCsmaMac\""
par Red.host6.eth.mac interfaceTableModule "\"Red.host6.interfaceTable\""
par Red.host6.eth.mac displayStringTextFormat "\"rate: %b\\nsent: %s, rcvd: %r\\nqueue: %q, drop: %d\""
par Red.host6.eth.mac sendRawBytes false
par Red.host6.eth.mac promiscuous false
par Red.host6.eth.mac duplexMode true
par Red.host6.eth.mac frameBursting true
par Red.host6.eth.mac mtu 1500B
attr unit B
par Red.host6.eth.mac stopOperationExtraTime -1s
attr unit s
par Red.host6.eth.mac stopOperationTimeout 2s
attr unit s
scalar Red.host6.eth.mac "simulated time" 0.552269635347
scalar Red.host6.eth.mac full-duplex 1
scalar Red.host6.eth.mac "frames/sec sent" 0
scalar Red.host6.eth.mac "frames/sec rcvd" 0
scalar Red.host6.eth.mac "bits/sec sent" 0
scalar Red.host6.eth.mac "bits/sec rcvd" 0
scalar Red.host6.eth.mac "rx channel idle (%)" 99.981313475629
scalar Red.host6.eth.mac "rx channel utilization (%)" 0.018686524370502
scalar Red.host6.eth.mac "rx channel collision (%)" 0
scalar Red.host6.eth.mac collisions 0
scalar Red.host6.eth.mac backoffs 0
scalar Red.host6.eth.mac backoffSlotsGenerated:count 0
attr interpolationmode none
attr title "backoff, count"
scalar Red.host6.eth.mac collision:count 0
attr interpolationmode none
attr title "collision, count"
scalar Red.host6.eth.mac rxPausePkUnits:count 0
attr interpolationmode none
attr title "pause units received, count"
scalar Red.host6.eth.mac rxPausePkUnits:sum 0
attr interpolationmode none
attr title "pause units received, sum"
scalar Red.host6.eth.mac txPausePkUnits:count 0
attr interpolationmode none
attr title "pause units sent, count"
scalar Red.host6.eth.mac txPausePkUnits:sum 0
attr interpolationmode none
attr title "pause units sent, sum"
scalar Red.host6.eth.mac rxPkOk:count 0
attr interpolationmode none
attr source rxPkOk
attr title "packets received OK, count"
scalar Red.host6.eth.mac rxPkOk:sum(packetBytes) 0
attr interpolationmode none
attr source rxPkOk
attr title "packets received OK, sum(packetBytes)"
scalar Red.host6.eth.mac txPk:count 0
attr interpolationmode none
attr source packetSentToLower
attr title "packets transmitted, count"
scalar Red.host6.eth.mac txPk:sum(packetBytes) 0
attr interpolationmode none
attr source packetSentToLower
attr title "packets transmitted, sum(packetBytes)"
scalar Red.host6.eth.mac packetReceivedFromUpper:count 0
attr interpolationmode none
attr source packetReceivedFromUpper
attr title "packet bytes from higher layer, count"
scalar Red.host6.eth.mac packetReceivedFromUpper:sum(packetBytes) 0
attr interpolationmode none
attr source packetReceivedFromUpper
attr title "packet bytes from higher layer, sum(packetBytes)"
scalar Red.host6.eth.mac passedUpPk:count 0
attr interpolationmode none
attr source packetSentToUpper
attr title "packets passed to higher layer, count"
scalar Red.host6.eth.mac passedUpPk:sum(packetBytes) 0
attr interpolationmode none
attr source packetSentToUpper
attr title "packets passed to higher layer, sum(packetBytes)"
scalar Red.host6.eth.mac packetDropIncorrectlyReceived:count 0
attr interpolationmode none
attr source packetDropReasonIsIncorrectlyReceived(packetDropped)
attr title "packet drop: incorrectly received, count"
scalar Red.host6.eth.mac packetDropIncorrectlyReceived:sum(packetBytes) 0
attr interpolationmode none
attr source packetDropReasonIsIncorrectlyReceived(packetDropped)
attr title "packet drop: incorrectly received, sum(packetBytes)"
scalar Red.host6.eth.mac packetDropInterfaceDown:count 0
attr interpolationmode none
attr source packetDropReasonIsInterfaceDown(packetDropped)
attr title "packet drop: interface down, count"
scalar Red.host6.eth.mac packetDropInterfaceDown:sum(packetBytes) 0
attr interpolationmode none
attr source packetDropReasonIsInterfaceDown(packetDropped)
attr title "packet drop: interface down, sum(packetBytes)"
scalar Red.host6.eth.mac packetDropNotAddressedToUs:count 1
attr interpolationmode none
attr source packetDropReasonIsNotAddressedToUs(packetDropped)
attr title "packet drop: not addressed to us, count"
scalar Red.host6.eth.mac packetDropNotAddressedToUs:sum(packetBytes) 121
attr interpolationmode none
attr source packetDropReasonIsNotAddressedToUs(packetDropped)
attr title "packet drop: not addressed to us, sum(packetBytes)"
par Red.host6.eth typename "\"inet.linklayer.ethernet.EthernetInterface\""
par Red.host6.eth displayStringTextFormat "\"%a (%i)\\n%m\""
par Red.host6.eth recordPcap false
par Red.host6.eth numPcapRecorders 0
par Red.host6.eth interfaceTableModule "\"Red.host6.interfaceTable\""
par Red.host6.eth address "\"0A-AA-00-00-00-06\""
par Red.host6.eth duplexMode true
par Red.host6.eth csmacdSupport true
par Red.host6.eth bitrate 0bps
attr unit bps
par Red.host6.eth fcsMode "\"declared\""
attr enum declared,computed
par Red.host6 typename "\"inet.node.ethernet.EthernetHost\""
par Red.host6 hasStatus false
par Red.host6 csmacdSupport true
par Red.host6 fcsMode "\"declared\""
attr enum declared,computed
par Red.host7.eth.phys$o.channel typename "\"ned.IdealChannel\""
par Red.host7.ethg$i.channel typename "\"ned.IdealChannel\""
par Red.host7.interfaceTable typename "\"inet.networklayer.common.InterfaceTable\""
par Red.host7.interfaceTable displayAddresses false
par Red.host7.cli typename "\"inet.applications.ethernet.EtherAppClient\""
par Red.host7.cli destAddress "\"\""
par Red.host7.cli startTime 0.544883s
attr unit s
par Red.host7.cli stopTime -1s
attr unit s
par Red.host7.cli localSAP 240
par Red.host7.cli remoteSAP 241
par Red.host7.cli sendInterval "uniform(0s, 1s)"
attr unit s
par Red.host7.cli reqLength 100B
attr unit B
par Red.host7.cli respLength 1024B
attr unit B
par Red.host7.cli stopOperationExtraTime -1s
attr unit s
par Red.host7.cli stopOperationTimeout 2s
attr unit s
scalar Red.host7.cli packetReceived:count 0
attr interpolationmode none
attr source packetReceived
attr title "packets received, count"
scalar Red.host7.cli packetReceived:sum(packetBytes) 0
attr interpolationmode none
[...]
par Red.switch5.eth[2].mac.queue dataCapacity -1b
attr unit b
par Red.switch5.eth[2].mac.queue dropperClass "\"inet::queueing::PacketAtCollectionEndDropper\""
par Red.switch5.eth[2].mac.queue comparatorClass "\"inet::EthernetFrameTypeComparator\""
par Red.switch5.eth[2].mac.queue bufferModule "\"\""
scalar Red.switch5.eth[2].mac.queue packetPulled:count 1
attr interpolationmode none
attr title "packet pulled, count"
scalar Red.switch5.eth[2].mac.queue packetPulled:sum(packetBytes) 121
attr interpolationmode none
attr title "packet pulled, sum(packetBytes)"
statistic Red.switch5.eth[2].mac.queue queueingTime:histogram
field count 1
field mean 0
field stddev -nan
field min 0
field max 0
field sum 0
field sqrsum 0
attr interpolationmode none
attr source queueingTime(packetPulled)
attr title "queueing times, histogram"
attr unit s
bin	-inf	0
bin	-0.5	0
bin	-0.48	0
bin	-0.46	0
bin	-0.44	0
bin	-0.42	0
bin	-0.4	0
bin	-0.38	0
bin	-0.36	0
bin	-0.34	0
bin	-0.32	0
bin	-0.3	0
bin	-0.28	0
bin	-0.26	0
bin	-0.24	0
bin	-0.22	0
bin	-0.2	0
bin	-0.18	0
bin	-0.16	0
bin	-0.14	0
bin	-0.12	0
bin	-0.1	0
bin	-0.08	0
bin	-0.06	0
bin	-0.04	0
bin	-0.02	0
bin	0	1
bin	0.02	0
bin	0.04	0
bin	0.06	0
bin	0.08	0
bin	0.1	0
bin	0.12	0
bin	0.14	0
bin	0.16	0
bin	0.18	0
bin	0.2	0
bin	0.22	0
bin	0.24	0
bin	0.26	0
bin	0.28	0
bin	0.3	0
bin	0.32	0
bin	0.34	0
bin	0.36	0
bin	0.38	0
bin	0.4	0
bin	0.42	0
bin	0.44	0
bin	0.46	0
bin	0.48	0
bin	0.5	0
scalar Red.switch5.eth[2].mac.queue queueLength:max 1
attr autoWarmupFilter false
attr interpolationmode sample-hold
attr source "warmup(count(packetPushed) - count(packetPulled) - count(packetRemoved) - count(packetDropped))"
attr title "queue length, max"
attr type int
scalar Red.switch5.eth[2].mac.queue queueLength:timeavg 0
attr autoWarmupFilter false
attr interpolationmode sample-hold
attr source "warmup(count(packetPushed) - count(packetPulled) - count(packetRemoved) - count(packetDropped))"
attr title "queue length, timeavg"
attr type int
scalar Red.switch5.eth[2].mac.queue packetPushed:count 1
attr interpolationmode none
attr title "packet pushed, count"
scalar Red.switch5.eth[2].mac.queue packetPushed:sum(packetBytes) 121
attr interpolationmode none
attr title "packet pushed, sum(packetBytes)"
scalar Red.switch5.eth[2].mac.queue packetDropQueueOverflow:count 0
attr interpolationmode none
attr source packetDropReasonIsQueueOverflow(packetDropped)
attr title "packet drops: queue overflow, count"
scalar Red.switch5.eth[2].mac.queue packetDropQueueOverflow:sum(packetBytes) 0
attr interpolationmode none
attr source packetDropReasonIsQueueOverflow(packetDropped)
attr title "packet drops: queue overflow, sum(packetBytes)"
scalar Red.switch5.eth[2].mac.queue packetRemoved:count 0
attr interpolationmode none
attr title "packets removed, count"
scalar Red.switch5.eth[2].mac.queue packetRemoved:sum(packetBytes) 0
attr interpolationmode none
attr title "packets removed, sum(packetBytes)"
par Red.switch5.eth[2].mac typename "\"inet.linklayer.ethernet.basic.EthernetMac\""
par Red.switch5.eth[2].mac interfaceTableModule "\"Red.switch5.interfaceTable\""
par Red.switch5.eth[2].mac displayStringTextFormat "\"rate: %b\\nsent: %s, rcvd: %r\\nqueue: %q, drop: %d\""
par Red.switch5.eth[2].mac sendRawBytes false
par Red.switch5.eth[2].mac promiscuous true
par Red.switch5.eth[2].mac duplexMode true
par Red.switch5.eth[2].mac mtu 1500B
attr unit B
par Red.switch5.eth[2].mac stopOperationExtraTime -1s
attr unit s
par Red.switch5.eth[2].mac stopOperationTimeout 2s
attr unit s
scalar Red.switch5.eth[2].mac "simulated time" 0.552269635347
scalar Red.switch5.eth[2].mac full-duplex 1
scalar Red.switch5.eth[2].mac "frames/sec sent" 1.8107097258238
scalar Red.switch5.eth[2].mac "frames/sec rcvd" 0
scalar Red.switch5.eth[2].mac "bits/sec sent" 1752.7670145975
scalar Red.switch5.eth[2].mac "bits/sec rcvd" 0
scalar Red.switch5.eth[2].mac "rx channel idle (%)" 100
scalar Red.switch5.eth[2].mac "rx channel utilization (%)" 0
scalar Red.switch5.eth[2].mac rxPausePkUnits:count 0
attr interpolationmode none
attr title "pause units received, count"
scalar Red.switch5.eth[2].mac rxPausePkUnits:sum 0
attr interpolationmode none
attr title "pause units received, sum"
scalar Red.switch5.eth[2].mac txPausePkUnits:count 0
attr interpolationmode none
attr title "pause units sent, count"
scalar Red.switch5.eth[2].mac txPausePkUnits:sum 0
attr interpolationmode none
attr title "pause units sent, sum"
scalar Red.switch5.eth[2].mac rxPkOk:count 0
attr interpolationmode none
attr source rxPkOk
attr title "packets received OK, count"
scalar Red.switch5.eth[2].mac rxPkOk:sum(packetBytes) 0
attr interpolationmode none
attr source rxPkOk
attr title "packets received OK, sum(packetBytes)"
scalar Red.switch5.eth[2].mac txPk:count 1
attr interpolationmode none
attr source packetSentToLower
attr title "packets transmitted, count"
scalar Red.switch5.eth[2].mac txPk:sum(packetBytes) 121
attr interpolationmode none
attr source packetSentToLower
attr title "packets transmitted, sum(packetBytes)"
scalar Red.switch5.eth[2].mac packetReceivedFromUpper:count 1
attr interpolationmode none
attr source packetReceivedFromUpper
attr title "packet bytes from higher layer, count"
scalar Red.switch5.eth[2].mac packetReceivedFromUpper:sum(packetBytes) 121
attr interpolationmode none
attr source packetReceivedFromUpper
attr title "packet bytes from higher layer, sum(packetBytes)"
scalar Red.switch5.eth[2].mac passedUpPk:count 0
attr interpolationmode none
attr source packetSentToUpper
attr title "packets passed to higher layer, count"
scalar Red.switch5.eth[2].mac passedUpPk:sum(packetBytes) 0
attr interpolationmode none
attr source packetSentToUpper
attr title "packets passed to higher layer, sum(packetBytes)"
scalar Red.switch5.eth[2].mac packetDropIncorrectlyReceived:count 0
attr interpolationmode none
attr source packetDropReasonIsIncorrectlyReceived(packetDropped)
attr title "packet drop: incorrectly received, count"
scalar Red.switch5.eth[2].mac packetDropIncorrectlyReceived:sum(packetBytes) 0
attr interpolationmode none
attr source packetDropReasonIsIncorrectlyReceived(packetDropped)
attr title "packet drop: incorrectly received, sum(packetBytes)"
scalar Red.switch5.eth[2].mac packetDropInterfaceDown:count 0
attr interpolationmode none
attr source packetDropReasonIsInterfaceDown(packetDropped)
attr title "packet drop: interface down, count"
scalar Red.switch5.eth[2].mac packetDropInterfaceDown:sum(packetBytes) 0
attr interpolationmode none
attr source packetDropReasonIsInterfaceDown(packetDropped)
attr title "packet drop: interface down, sum(packetBytes)"
scalar Red.switch5.eth[2].mac packetDropNotAddressedToUs:count 0
attr interpolationmode none
attr source packetDropReasonIsNotAddressedToUs(packetDropped)
attr title "packet drop: not addressed to us, count"
scalar Red.switch5.eth[2].mac packetDropNotAddressedToUs:sum(packetBytes) 0
attr interpolationmode none
attr source packetDropReasonIsNotAddressedToUs(packetDropped)
attr title "packet drop: not addressed to us, sum(packetBytes)"
par Red.switch5.eth[2] typename "\"inet.linklayer.ethernet.EthernetInterface\""
par Red.switch5.eth[2] displayStringTextFormat "\"%a (%i)\\n%m\""
par Red.switch5.eth[2] recordPcap false
par Red.switch5.eth[2] numPcapRecorders 0
par Red.switch5.eth[2] interfaceTableModule "\"Red.switch5.interfaceTable\""
par Red.switch5.eth[2] address "\"AAAAAA000005\""
par Red.switch5.eth[2] duplexMode true
par Red.switch5.eth[2] csmacdSupport false
par Red.switch5.eth[2] bitrate 0bps
attr unit bps
par Red.switch5.eth[2] fcsMode "\"declared\""
attr enum declared,computed
par Red.switch5.eth[3].mac.phys$o.channel typename "\"ned.IdealChannel\""
par Red.switch5.eth[3].phys$i.channel typename "\"ned.IdealChannel\""
par Red.switch5.eth[3].mac.queue typename "\"inet.linklayer.ethernet.common.EthernetQueue\""
par Red.switch5.eth[3].mac.queue displayStringTextFormat "\"contains %p pk (%l) pushed %u\\npulled %o removed %r dropped %d\""
par Red.switch5.eth[3].mac.queue packetCapacity 10000
par Red.switch5.eth[3].mac.queue dataCapacity -1b
attr unit b
par Red.switch5.eth[3].mac.queue dropperClass "\"inet::queueing::PacketAtCollectionEndDropper\""
par Red.switch5.eth[3].mac.queue comparatorClass "\"inet::EthernetFrameTypeComparator\""
par Red.switch5.eth[3].mac.queue bufferModule "\"\""
scalar Red.switch5.eth[3].mac.queue packetPulled:count 1
attr interpolationmode none
attr title "packet pulled, count"
scalar Red.switch5.eth[3].mac.queue packetPulled:sum(packetBytes) 121
attr interpolationmode none
attr title "packet pulled, sum(packetBytes)"
statistic Red.switch5.eth[3].mac.queue queueingTime:histogram
field count 1
field mean 0
field stddev -nan
field min 0
field max 0
field sum 0
field sqrsum 0
attr interpolationmode none
attr source queueingTime(packetPulled)
attr title "queueing times, histogram"
attr unit s
bin	-inf	0
bin	-0.5	0
bin	-0.48	0
bin	-0.46	0
bin	-0.44	0
bin	-0.42	0
bin	-0.4	0
bin	-0.38	0
bin	-0.36	0
bin	-0.34	0
bin	-0.32	0
bin	-0.3	0
bin	-0.28	0
bin	-0.26	0
bin	-0.24	0
bin	-0.22	0
bin	-0.2	0
bin	-0.18	0
bin	-0.16	0
bin	-0.14	0
bin	-0.12	0
bin	-0.1	0
bin	-0.08	0
bin	-0.06	0
bin	-0.04	0
bin	-0.02	0
bin	0	1
bin	0.02	0
bin	0.04	0
bin	0.06	0
bin	0.08	0
bin	0.1	0
bin	0.12	0
bin	0.14	0
bin	0.16	0
bin	0.18	0
bin	0.2	0
bin	0.22	0
bin	0.24	0
bin	0.26	0
bin	0.28	0
bin	0.3	0
bin	0.32	0
bin	0.34	0
bin	0.36	0
bin	0.38	0
bin	0.4	0
bin	0.42	0
bin	0.44	0
bin	0.46	0
bin	0.48	0
bin	0.5	0
scalar Red.switch5.eth[3].mac.queue queueLength:max 1
attr autoWarmupFilter false
attr interpolationmode sample-hold
attr source "warmup(count(packetPushed) - count(packetPulled) - count(packetRemoved) - count(packetDropped))"
attr title "queue length, max"
attr type int
scalar Red.switch5.eth[3].mac.queue queueLength:timeavg 0
attr autoWarmupFilter false
attr interpolationmode sample-hold
attr source "warmup(count(packetPushed) - count(packetPulled) - count(packetRemoved) - count(packetDropped))"
attr title "queue length, timeavg"
attr type int
scalar Red.switch5.eth[3].mac.queue packetPushed:count 1
attr interpolationmode none
attr title "packet pushed, count"
scalar Red.switch5.eth[3].mac.queue packetPushed:sum(packetBytes) 121
attr interpolationmode none
attr title "packet pushed, sum(packetBytes)"
scalar Red.switch5.eth[3].mac.queue packetDropQueueOverflow:count 0
attr interpolationmode none
attr source packetDropReasonIsQueueOverflow(packetDropped)
attr title "packet drops: queue overflow, count"
scalar Red.switch5.eth[3].mac.queue packetDropQueueOverflow:sum(packetBytes) 0
attr interpolationmode none
attr source packetDropReasonIsQueueOverflow(packetDropped)
attr title "packet drops: queue overflow, sum(packetBytes)"
scalar Red.switch5.eth[3].mac.queue packetRemoved:count 0
attr interpolationmode none
attr title "packets removed, count"
scalar Red.switch5.eth[3].mac.queue packetRemoved:sum(packetBytes) 0
attr interpolationmode none
attr title "packets removed, sum(packetBytes)"
par Red.switch5.eth[3].mac typename "\"inet.linklayer.ethernet.basic.EthernetMac\""
par Red.switch5.eth[3].mac interfaceTableModule "\"Red.switch5.interfaceTable\""
par Red.switch5.eth[3].mac displayStringTextFormat "\"rate: %b\\nsent: %s, rcvd: %r\\nqueue: %q, drop: %d\""
par Red.switch5.eth[3].mac sendRawBytes false
par Red.switch5.eth[3].mac promiscuous true
par Red.switch5.eth[3].mac duplexMode true
par Red.switch5.eth[3].mac mtu 1500B
attr unit B
par Red.switch5.eth[3].mac stopOperationExtraTime -1s
attr unit s
par Red.switch5.eth[3].mac stopOperationTimeout 2s
attr unit s
scalar Red.switch5.eth[3].mac "simulated time" 0.552269635347
scalar Red.switch5.eth[3].mac full-duplex 1
scalar Red.switch5.eth[3].mac "frames/sec sent" 1.8107097258238
scalar Red.switch5.eth[3].mac "frames/sec rcvd" 1.8107097258238
scalar Red.switch5.eth[3].mac "bits/sec sent" 1752.7670145975
scalar Red.switch5.eth[3].mac "bits/sec rcvd" 15137.533307887
scalar Red.switch5.eth[3].mac "rx channel idle (%)" 99.847465812697
scalar Red.switch5.eth[3].mac "rx channel utilization (%)" 0.1525341873034
scalar Red.switch5.eth[3].mac rxPausePkUnits:count 0
attr interpolationmode none
attr title "pause units received, count"
scalar Red.switch5.eth[3].mac rxPausePkUnits:sum 0
attr interpolationmode none
attr title "pause units received, sum"
scalar Red.switch5.eth[3].mac txPausePkUnits:count 0
attr interpolationmode none
attr title "pause units sent, count"
scalar Red.switch5.eth[3].mac txPausePkUnits:sum 0
attr interpolationmode none
attr title "pause units sent, sum"
scalar Red.switch5.eth[3].mac rxPkOk:count 1
attr interpolationmode none
attr source rxPkOk
attr title "packets received OK, count"
scalar Red.switch5.eth[3].mac rxPkOk:sum(packetBytes) 1045
attr interpolationmode none
attr source rxPkOk
attr title "packets received OK, sum(packetBytes)"
scalar Red.switch5.eth[3].mac txPk:count 1
attr interpolationmode none
attr source packetSentToLower
attr title "packets transmitted, count"
scalar Red.switch5.eth[3].mac txPk:sum(packetBytes) 121
attr interpolationmode none
attr source packetSentToLower
attr title "packets transmitted, sum(packetBytes)"
scalar Red.switch5.eth[3].mac packetReceivedFromUpper:count 1
attr interpolationmode none
attr source packetReceivedFromUpper
attr title "packet bytes from higher layer, count"
scalar Red.switch5.eth[3].mac packetReceivedFromUpper:sum(packetBytes) 121
attr interpolationmode none
attr source packetReceivedFromUpper
attr title "packet bytes from higher layer, sum(packetBytes)"
scalar Red.switch5.eth[3].mac passedUpPk:count 1
attr interpolationmode none
attr source packetSentToUpper
attr title "packets passed to higher layer, count"
scalar Red.switch5.eth[3].mac passedUpPk:sum(packetBytes) 1045
attr interpolationmode none
attr source packetSentToUpper
attr title "packets passed to higher layer, sum(packetBytes)"
scalar Red.switch5.eth[3].mac packetDropIncorrectlyReceived:count 0
attr interpolationmode none
attr source packetDropReasonIsIncorrectlyReceived(packetDropped)
attr title "packet drop: incorrectly received, count"
scalar Red.switch5.eth[3].mac packetDropIncorrectlyReceived:sum(packetBytes) 0
attr interpolationmode none
attr source packetDropReasonIsIncorrectlyReceived(packetDropped)
attr title "packet drop: incorrectly received, sum(packetBytes)"
scalar Red.switch5.eth[3].mac packetDropInterfaceDown:count 0
attr interpolationmode none
attr source packetDropReasonIsInterfaceDown(packetDropped)
attr title "packet drop: interface down, count"
scalar Red.switch5.eth[3].mac packetDropInterfaceDown:sum(packetBytes) 0
attr interpolationmode none
attr source packetDropReasonIsInterfaceDown(packetDropped)
attr title "packet drop: interface down, sum(packetBytes)"
scalar Red.switch5.eth[3].mac packetDropNotAddressedToUs:count 0
attr interpolationmode none
attr source packetDropReasonIsNotAddressedToUs(packetDropped)
attr title "packet drop: not addressed to us, count"
scalar Red.switch5.eth[3].mac packetDropNotAddressedToUs:sum(packetBytes) 0
attr interpolationmode none
attr source packetDropReasonIsNotAddressedToUs(packetDropped)
attr title "packet drop: not addressed to us, sum(packetBytes)"
par Red.switch5.eth[3] typename "\"inet.linklayer.ethernet.EthernetInterface\""
par Red.switch5.eth[3] displayStringTextFormat "\"%a (%i)\\n%m\""
par Red.switch5.eth[3] recordPcap false
par Red.switch5.eth[3] numPcapRecorders 0
par Red.switch5.eth[3] interfaceTableModule "\"Red.switch5.interfaceTable\""
par Red.switch5.eth[3] address "\"AAAAAA000005\""
par Red.switch5.eth[3] duplexMode true
par Red.switch5.eth[3] csmacdSupport false
par Red.switch5.eth[3] bitrate 0bps
attr unit bps
par Red.switch5.eth[3] fcsMode "\"declared\""
attr enum declared,computed
par Red.switch5.encap typename "\"inet.linklayer.ethernet.basic.EthernetEncapsulation\""
par Red.switch5.encap interfaceTableModule "\"Red.switch5.interfaceTable\""
par Red.switch5.encap useSNAP false
par Red.switch5.encap fcsMode "\"declared\""
attr enum declared,computed
par Red.switch5.encap registerProtocol true
par Red.switch5.encap stopOperationExtraTime -1s
attr unit s
par Red.switch5.encap stopOperationTimeout 2s
attr unit s
scalar Red.switch5.encap pauseSent:count 0
attr title "pause sent, count"
scalar Red.switch5.encap pauseSent:sum 0
attr title "pause sent, sum"
scalar Red.switch5.encap decapPk:count 0
attr interpolationmode none
attr source decapPk
attr title "packets decapsulated, count"
scalar Red.switch5.encap decapPk:sum(packetBytes) 0
attr interpolationmode none
attr source decapPk
attr title "packets decapsulated, sum(packetBytes)"
scalar Red.switch5.encap encapPk:count 0
attr interpolationmode none
attr source encapPk
attr title "packets encapsulated, count"
scalar Red.switch5.encap encapPk:sum(packetBytes) 0
attr interpolationmode none
attr source encapPk
attr title "packets encapsulated, sum(packetBytes)"
par Red.switch5.rl typename "\"inet.common.MessageDispatcher\""
par Red.switch5.rl displayStringTextFormat "\"processed %p pk (%l)\""
par Red.switch5.ieee8021q.qTagHeaderInserter.out.channel typename "\"ned.IdealChannel\""
par Red.switch5.ieee8021q.lowerLayerIn.channel typename "\"ned.IdealChannel\""
par Red.switch5.ieee8021q.qTagHeaderInserter typename "\"inet.linklayer.ieee8021q.Ieee8021qTagEpdHeaderInserter\""
par Red.switch5.ieee8021q.qTagHeaderInserter displayStringTextFormat "\"processed %p pk (%l)\""
par Red.switch5.ieee8021q.qTagHeaderInserter vlanTagType "\"c\""
attr enum c,s
par Red.switch5.ieee8021q.qTagHeaderInserter nextProtocol "\"ethernetmac\""
par Red.switch5.ieee8021q.qTagHeaderInserter defaultVlanId -1
par Red.switch5.ieee8021q.qTagHeaderInserter defaultUserPriority -1
scalar Red.switch5.ieee8021q.qTagHeaderInserter packetPulled:count 0
attr interpolationmode none
attr title "packets pulled, count"
scalar Red.switch5.ieee8021q.qTagHeaderInserter packetPulled:sum(packetBytes) 0
attr interpolationmode none
attr title "packets pulled, sum(packetBytes)"
scalar Red.switch5.ieee8021q.qTagHeaderInserter packetPushed:count 0
attr interpolationmode none
attr title "packets pushed, count"
scalar Red.switch5.ieee8021q.qTagHeaderInserter packetPushed:sum(packetBytes) 0
attr interpolationmode none
attr title "packets pushed, sum(packetBytes)"
par Red.switch5.ieee8021q.qTagHeaderChecker typename "\"inet.linklayer.ieee8021q.Ieee8021qTagEpdHeaderChecker\""
par Red.switch5.ieee8021q.qTagHeaderChecker displayStringTextFormat "\"dropped %d/%p pk (%k/%l)\""
par Red.switch5.ieee8021q.qTagHeaderChecker vlanTagType "\"c\""
attr enum c,s
par Red.switch5.ieee8021q.qTagHeaderChecker vlanIdFilter "\"\""
scalar Red.switch5.ieee8021q.qTagHeaderChecker packetPulled:count 0
attr interpolationmode none
attr title "packets pulled, count"
scalar Red.switch5.ieee8021q.qTagHeaderChecker packetPulled:sum(packetBytes) 0
attr interpolationmode none
attr title "packets pulled, sum(packetBytes)"
scalar Red.switch5.ieee8021q.qTagHeaderChecker packetPushed:count 0
attr interpolationmode none
attr title "packets pushed, count"
scalar Red.switch5.ieee8021q.qTagHeaderChecker packetPushed:sum(packetBytes) 0
attr interpolationmode none
attr title "packets pushed, sum(packetBytes)"
scalar Red.switch5.ieee8021q.qTagHeaderChecker packetDropped:count 0
attr interpolationmode none
attr title "packets dropped, count"
scalar Red.switch5.ieee8021q.qTagHeaderChecker packetDropped:sum(packetBytes) 0
attr interpolationmode none
attr title "packets dropped, sum(packetBytes)"
par Red.switch5.ieee8021q typename "\"inet.linklayer.ieee8021q.Ieee8021qLayer\""
par Red.switch5.ieee8021q vlanTagType "\"c\""
par Red.switch5.ieee8021q hasSocketSupport false
par Red.switch5 typename "\"inet.node.ethernet.EthernetSwitch\""
par Red.switch5 numPcapRecorders 0
par Red.switch5 hasStatus false
par Red.switch5 hasStp false
par Red.switch5 enableCutthrough false
par Red.switch5 fcsMode "\"declared\""
attr enum declared,computed
par Red.switch5 spanningTreeProtocol "\"Stp\""
par Red.switch5 numEthInterfaces 0
par Red typename "\"red8.Red\""

