version 3
run UDP-0-20210624-13:00:55-17941
attr configname UDP
attr datetime 20210624-13:00:55
attr datetimef 20210624-130055
attr experiment UDP
attr inifile omnetpp.ini
attr iterationvars ""
attr iterationvarsf ""
attr measurement ""
attr network Red
attr processid 17941
attr repetition 0
attr replication #0
attr resultdir results
attr runnumber 0
attr seedset 0
itervar iterationvarsd ""
config image-path ../../../../inet-4.3.2-src/inet4.3/images
config **.eth[*].duplexMode true
config **.ppp[*].ppp.queue.typename DropTailQueue
config **.host*.numApps 1
config **.host*.app[0].typename UdpBasicBurst
config **.host*.app[0].localPort 1000
config **.host*.app[0].destPort 1000
config **.host1.app[0].destAddresses "\"host8\""
config **.host*.app[0].destAddresses "\"\""
config **.host*.app[*].messageLength 1000B
config **.host*.app[*].burstDuration 0.5s+uniform(0s,0.5s)
config **.host*.app[*].sleepDuration 0.01s
config **.host*.app[*].sendInterval 0.001s+uniform(-0.0001s,0.0001s)
config **.host*.app[*].chooseDestAddrMode "\"perBurst\""
config network Red
config sim-time-limit 2s

par Red.host1.ethg$o[0].channel typename "\"red8.Red.cable\""
par Red.host1.ethg$o[0].channel disabled false
par Red.host1.ethg$o[0].channel delay 1e-07s
attr unit s
par Red.host1.ethg$o[0].channel datarate 1e+07bps
attr unit bps
par Red.host1.ethg$o[0].channel ber 0
par Red.host1.ethg$o[0].channel per 0
par Red.switch1.ethg$o[0].channel typename "\"red8.Red.cable\""
par Red.switch1.ethg$o[0].channel disabled false
par Red.switch1.ethg$o[0].channel delay 1e-07s
attr unit s
par Red.switch1.ethg$o[0].channel datarate 1e+07bps
attr unit bps
par Red.switch1.ethg$o[0].channel ber 0
par Red.switch1.ethg$o[0].channel per 0
par Red.host2.ethg$o[0].channel typename "\"red8.Red.cable\""
par Red.host2.ethg$o[0].channel disabled false
par Red.host2.ethg$o[0].channel delay 1e-07s
attr unit s
par Red.host2.ethg$o[0].channel datarate 1e+07bps
attr unit bps
par Red.host2.ethg$o[0].channel ber 0
par Red.host2.ethg$o[0].channel per 0
par Red.switch1.ethg$o[1].channel typename "\"red8.Red.cable\""
par Red.switch1.ethg$o[1].channel disabled false
par Red.switch1.ethg$o[1].channel delay 1e-07s
attr unit s
par Red.switch1.ethg$o[1].channel datarate 1e+07bps
attr unit bps
par Red.switch1.ethg$o[1].channel ber 0
par Red.switch1.ethg$o[1].channel per 0
par Red.host3.ethg$o[0].channel typename "\"red8.Red.cable\""
par Red.host3.ethg$o[0].channel disabled false
par Red.host3.ethg$o[0].channel delay 1e-07s
attr unit s
par Red.host3.ethg$o[0].channel datarate 1e+07bps
attr unit bps
par Red.host3.ethg$o[0].channel ber 0
par Red.host3.ethg$o[0].channel per 0
par Red.switch2.ethg$o[0].channel typename "\"red8.Red.cable\""
par Red.switch2.ethg$o[0].channel disabled false
par Red.switch2.ethg$o[0].channel delay 1e-07s
attr unit s
par Red.switch2.ethg$o[0].channel datarate 1e+07bps
attr unit bps
par Red.switch2.ethg$o[0].channel ber 0
par Red.switch2.ethg$o[0].channel per 0
par Red.host4.ethg$o[0].channel typename "\"red8.Red.cable\""
par Red.host4.ethg$o[0].channel disabled false
par Red.host4.ethg$o[0].channel delay 1e-07s
attr unit s
par Red.host4.ethg$o[0].channel datarate 1e+07bps
attr unit bps
par Red.host4.ethg$o[0].channel ber 0
par Red.host4.ethg$o[0].channel per 0
par Red.switch2.ethg$o[1].channel typename "\"red8.Red.cable\""
par Red.switch2.ethg$o[1].channel disabled false
par Red.switch2.ethg$o[1].channel delay 1e-07s
attr unit s
par Red.switch2.ethg$o[1].channel datarate 1e+07bps
attr unit bps
par Red.switch2.ethg$o[1].channel ber 0
par Red.switch2.ethg$o[1].channel per 0
par Red.host5.ethg$o[0].channel typename "\"red8.Red.cable\""
par Red.host5.ethg$o[0].channel disabled false
par Red.host5.ethg$o[0].channel delay 1e-07s
attr unit s
par Red.host5.ethg$o[0].channel datarate 1e+07bps
attr unit bps
par Red.host5.ethg$o[0].channel ber 0
par Red.host5.ethg$o[0].channel per 0
par Red.switch3.ethg$o[0].channel typename "\"red8.Red.cable\""
par Red.switch3.ethg$o[0].channel disabled false
par Red.switch3.ethg$o[0].channel delay 1e-07s
attr unit s
par Red.switch3.ethg$o[0].channel datarate 1e+07bps
attr unit bps
par Red.switch3.ethg$o[0].channel ber 0
par Red.switch3.ethg$o[0].channel per 0
par Red.host6.ethg$o[0].channel typename "\"red8.Red.cable\""
par Red.host6.ethg$o[0].channel disabled false
par Red.host6.ethg$o[0].channel delay 1e-07s
attr unit s
par Red.host6.ethg$o[0].channel datarate 1e+07bps
attr unit bps
par Red.host6.ethg$o[0].channel ber 0
par Red.host6.ethg$o[0].channel per 0
par Red.switch3.ethg$o[1].channel typename "\"red8.Red.cable\""
par Red.switch3.ethg$o[1].channel disabled false
par Red.switch3.ethg$o[1].channel delay 1e-07s
attr unit s
par Red.switch3.ethg$o[1].channel datarate 1e+07bps
attr unit bps
par Red.switch3.ethg$o[1].channel ber 0
par Red.switch3.ethg$o[1].channel per 0
par Red.host7.ethg$o[0].channel typename "\"red8.Red.cable\""
par Red.host7.ethg$o[0].channel disabled false
par Red.host7.ethg$o[0].channel delay 1e-07s
attr unit s
par Red.host7.ethg$o[0].channel datarate 1e+07bps
attr unit bps
par Red.host7.ethg$o[0].channel ber 0
par Red.host7.ethg$o[0].channel per 0
par Red.switch4.ethg$o[0].channel typename "\"red8.Red.cable\""
par Red.switch4.ethg$o[0].channel disabled false
par Red.switch4.ethg$o[0].channel delay 1e-07s
attr unit s
par Red.switch4.ethg$o[0].channel datarate 1e+07bps
attr unit bps
par Red.switch4.ethg$o[0].channel ber 0
par Red.switch4.ethg$o[0].channel per 0
par Red.host8.ethg$o[0].channel typename "\"red8.Red.cable\""
par Red.host8.ethg$o[0].channel disabled false
par Red.host8.ethg$o[0].channel delay 1e-07s
attr unit s
par Red.host8.ethg$o[0].channel datarate 1e+07bps
attr unit bps
par Red.host8.ethg$o[0].channel ber 0
par Red.host8.ethg$o[0].channel per 0
par Red.switch4.ethg$o[1].channel typename "\"red8.Red.cable\""
par Red.switch4.ethg$o[1].channel disabled false
par Red.switch4.ethg$o[1].channel delay 1e-07s
attr unit s
par Red.switch4.ethg$o[1].channel datarate 1e+07bps
attr unit bps
par Red.switch4.ethg$o[1].channel ber 0
par Red.switch4.ethg$o[1].channel per 0
par Red.switch1.ethg$o[2].channel typename "\"red8.Red.cable\""
par Red.switch1.ethg$o[2].channel disabled false
par Red.switch1.ethg$o[2].channel delay 1e-07s
attr unit s
par Red.switch1.ethg$o[2].channel datarate 1e+07bps
attr unit bps
par Red.switch1.ethg$o[2].channel ber 0
par Red.switch1.ethg$o[2].channel per 0
par Red.switch5.ethg$o[0].channel typename "\"red8.Red.cable\""
par Red.switch5.ethg$o[0].channel disabled false
par Red.switch5.ethg$o[0].channel delay 1e-07s
attr unit s
par Red.switch5.ethg$o[0].channel datarate 1e+07bps
attr unit bps
par Red.switch5.ethg$o[0].channel ber 0
par Red.switch5.ethg$o[0].channel per 0
par Red.switch2.ethg$o[2].channel typename "\"red8.Red.cable\""
par Red.switch2.ethg$o[2].channel disabled false
par Red.switch2.ethg$o[2].channel delay 1e-07s
attr unit s
par Red.switch2.ethg$o[2].channel datarate 1e+07bps
attr unit bps
par Red.switch2.ethg$o[2].channel ber 0
par Red.switch2.ethg$o[2].channel per 0
par Red.switch5.ethg$o[1].channel typename "\"red8.Red.cable\""
par Red.switch5.ethg$o[1].channel disabled false
par Red.switch5.ethg$o[1].channel delay 1e-07s
attr unit s
par Red.switch5.ethg$o[1].channel datarate 1e+07bps
attr unit bps
par Red.switch5.ethg$o[1].channel ber 0
par Red.switch5.ethg$o[1].channel per 0
par Red.switch3.ethg$o[2].channel typename "\"red8.Red.cable\""
par Red.switch3.ethg$o[2].channel disabled false
par Red.switch3.ethg$o[2].channel delay 1e-07s
attr unit s
par Red.switch3.ethg$o[2].channel datarate 1e+07bps
attr unit bps
par Red.switch3.ethg$o[2].channel ber 0
par Red.switch3.ethg$o[2].channel per 0
par Red.switch5.ethg$o[2].channel typename "\"red8.Red.cable\""
par Red.switch5.ethg$o[2].channel disabled false
par Red.switch5.ethg$o[2].channel delay 1e-07s
attr unit s
par Red.switch5.ethg$o[2].channel datarate 1e+07bps
attr unit bps
par Red.switch5.ethg$o[2].channel ber 0
par Red.switch5.ethg$o[2].channel per 0
par Red.switch4.ethg$o[2].channel typename "\"red8.Red.cable\""
par Red.switch4.ethg$o[2].channel disabled false
par Red.switch4.ethg$o[2].channel delay 1e-07s
attr unit s
par Red.switch4.ethg$o[2].channel datarate 1e+07bps
attr unit bps
par Red.switch4.ethg$o[2].channel ber 0
par Red.switch4.ethg$o[2].channel per 0
par Red.switch5.ethg$o[3].channel typename "\"red8.Red.cable\""
par Red.switch5.ethg$o[3].channel disabled false
par Red.switch5.ethg$o[3].channel delay 1e-07s
attr unit s
par Red.switch5.ethg$o[3].channel datarate 1e+07bps
attr unit bps
par Red.switch5.ethg$o[3].channel ber 0
par Red.switch5.ethg$o[3].channel per 0
par Red.host1.ethg$i[0].channel typename "\"ned.IdealChannel\""
par Red.host1.eth[0].phys$o.channel typename "\"ned.IdealChannel\""
par Red.host1.interfaceTable typename "\"inet.networklayer.common.InterfaceTable\""
par Red.host1.interfaceTable displayAddresses false
par Red.host1.li typename "\"inet.common.MessageDispatcher\""
par Red.host1.li displayStringTextFormat "\"processed %p pk (%l)\""
par Red.host1.lo[0].upperLayerIn.channel typename "\"ned.IdealChannel\""
par Red.host1.lo[0].lo.upperLayerOut.channel typename "\"ned.IdealChannel\""
par Red.host1.lo[0].lo typename "\"inet.linklayer.loopback.Loopback\""
par Red.host1.lo[0].lo interfaceTableModule "\"Red.host1.interfaceTable\""
par Red.host1.lo[0].lo mtu 4470B
attr unit B
scalar Red.host1.lo[0].lo rcvdPkFromHl:count 0
attr interpolationmode none
attr source packetReceivedFromUpper
attr title "packets received from higher layer, count"
scalar Red.host1.lo[0].lo rcvdPkFromHl:sum(packetBytes) 0
attr interpolationmode none
attr source packetReceivedFromUpper
attr title "packets received from higher layer, sum(packetBytes)"
scalar Red.host1.lo[0].lo passedUpPk:count 0
attr interpolationmode none
attr source packetSentToUpper
attr title "packets passed to higher layer, count"
scalar Red.host1.lo[0].lo passedUpPk:sum(packetBytes) 0
attr interpolationmode none
attr source packetSentToUpper
attr title "packets passed to higher layer, sum(packetBytes)"
par Red.host1.lo[0] typename "\"inet.linklayer.loopback.LoopbackInterface\""
par Red.host1.lo[0] displayStringTextFormat "\"%a (%i)\\n%m\""
par Red.host1.lo[0] recordPcap false
par Red.host1.lo[0] numPcapRecorders 0
par Red.host1.lo[0] interfaceTableModule "\"Red.host1.interfaceTable\""
par Red.host1.eth[0].mac.phys$o.channel typename "\"ned.IdealChannel\""
par Red.host1.eth[0].phys$i.channel typename "\"ned.IdealChannel\""
par Red.host1.eth[0].encap.upperLayerOut.channel typename "\"ned.IdealChannel\""
par Red.host1.eth[0].upperLayerIn.channel typename "\"ned.IdealChannel\""
par Red.host1.eth[0].encap typename "\"inet.linklayer.ethernet.basic.EthernetEncapsulation\""
par Red.host1.eth[0].encap interfaceTableModule "\"Red.host1.interfaceTable\""
par Red.host1.eth[0].encap useSNAP false
par Red.host1.eth[0].encap fcsMode "\"declared\""
attr enum declared,computed
par Red.host1.eth[0].encap registerProtocol false
par Red.host1.eth[0].encap stopOperationExtraTime -1s
attr unit s
par Red.host1.eth[0].encap stopOperationTimeout 2s
attr unit s
scalar Red.host1.eth[0].encap pauseSent:count 0
attr title "pause sent, count"
scalar Red.host1.eth[0].encap pauseSent:sum 0
attr title "pause sent, sum"
scalar Red.host1.eth[0].encap decapPk:count 1
attr interpolationmode none
attr source decapPk
attr title "packets decapsulated, count"
scalar Red.host1.eth[0].encap decapPk:sum(packetBytes) 46
attr interpolationmode none
attr source decapPk
attr title "packets decapsulated, sum(packetBytes)"
scalar Red.host1.eth[0].encap encapPk:count 15
attr interpolationmode none
attr source encapPk
attr title "packets encapsulated, count"
scalar Red.host1.eth[0].encap encapPk:sum(packetBytes) 14420
attr interpolationmode none
attr source encapPk
attr title "packets encapsulated, sum(packetBytes)"
par Red.host1.eth[0].mac.queue typename "\"inet.linklayer.ethernet.common.EthernetQueue\""
par Red.host1.eth[0].mac.queue displayStringTextFormat "\"contains %p pk (%l) pushed %u\\npulled %o removed %r dropped %d\""
par Red.host1.eth[0].mac.queue packetCapacity 10000
par Red.host1.eth[0].mac.queue dataCapacity -1b
attr unit b
par Red.host1.eth[0].mac.queue dropperClass "\"inet::queueing::PacketAtCollectionEndDropper\""
par Red.host1.eth[0].mac.queue comparatorClass "\"inet::EthernetFrameTypeComparator\""
par Red.host1.eth[0].mac.queue bufferModule "\"\""
scalar Red.host1.eth[0].mac.queue packetPulled:count 15
attr interpolationmode none
attr title "packet pulled, count"
scalar Red.host1.eth[0].mac.queue packetPulled:sum(packetBytes) 14690
attr interpolationmode none
attr title "packet pulled, sum(packetBytes)"
statistic Red.host1.eth[0].mac.queue queueingTime:histogram
field count 15
field mean 2.79357818e-05
field stddev 8.2021336456506e-05
field min 0
field max 0.0003046373
field sum 0.000419036727
field sqrsum 1.0589111344922e-07
attr interpolationmode none
attr source queueingTime(packetPulled)
attr title "queueing times, histogram"
attr unit s
bin	-inf	0
bin	0	13
bin	5e-06	0
bin	1e-05	0
bin	1.5e-05	0
bin	2e-05	0
bin	2.5e-05	0
bin	3e-05	0
bin	3.5e-05	0
bin	4e-05	0
bin	4.5e-05	0
bin	5e-05	0
bin	5.5e-05	0
bin	6e-05	0
bin	6.5e-05	0
bin	7e-05	0
bin	7.5e-05	0
bin	8e-05	0
bin	8.5e-05	0
bin	9e-05	0
bin	9.5e-05	0
bin	0.0001	0
bin	0.000105	0
bin	0.00011	1
bin	0.000115	0
bin	0.00012	0
bin	0.000125	0
bin	0.00013	0
bin	0.000135	0
bin	0.00014	0
bin	0.000145	0
bin	0.00015	0
bin	0.000155	0
bin	0.00016	0
bin	0.000165	0
bin	0.00017	0
bin	0.000175	0
bin	0.00018	0
bin	0.000185	0
bin	0.00019	0
bin	0.000195	0
bin	0.0002	0
bin	0.000205	0
bin	0.00021	0
bin	0.000215	0
bin	0.00022	0
bin	0.000225	0
bin	0.00023	0
bin	0.000235	0
bin	0.00024	0
bin	0.000245	0
bin	0.00025	0
bin	0.000255	0
bin	0.00026	0
bin	0.000265	0
bin	0.00027	0
bin	0.000275	0
bin	0.00028	0
bin	0.000285	0
bin	0.00029	0
bin	0.000295	0
bin	0.0003	1
bin	0.000305	0
bin	0.00031	0
bin	0.000315	0
bin	0.00032	0
bin	0.000325	0
bin	0.00033	0
bin	0.000335	0
bin	0.00034	0
bin	0.000345	0
bin	0.00035	0
bin	0.000355	0
bin	0.00036	0
bin	0.000365	0
bin	0.00037	0
bin	0.000375	0
bin	0.00038	0
bin	0.000385	0
scalar Red.host1.eth[0].mac.queue queueLength:max 1
attr autoWarmupFilter false
attr interpolationmode sample-hold
attr source "warmup(count(packetPushed) - count(packetPulled) - count(packetRemoved) - count(packetDropped))"
attr title "queue length, max"
attr type int
scalar Red.host1.eth[0].mac.queue queueLength:timeavg 0.029235595747656
attr autoWarmupFilter false
attr interpolationmode sample-hold
attr source "warmup(count(packetPushed) - count(packetPulled) - count(packetRemoved) - count(packetDropped))"
attr title "queue length, timeavg"
attr type int
scalar Red.host1.eth[0].mac.queue packetPushed:count 15
attr interpolationmode none
attr title "packet pushed, count"
scalar Red.host1.eth[0].mac.queue packetPushed:sum(packetBytes) 14690
attr interpolationmode none
attr title "packet pushed, sum(packetBytes)"
scalar Red.host1.eth[0].mac.queue packetDropQueueOverflow:count 0
attr interpolationmode none
attr source packetDropReasonIsQueueOverflow(packetDropped)
attr title "packet drops: queue overflow, count"
scalar Red.host1.eth[0].mac.queue packetDropQueueOverflow:sum(packetBytes) 0
attr interpolationmode none
attr source packetDropReasonIsQueueOverflow(packetDropped)
attr title "packet drops: queue overflow, sum(packetBytes)"
scalar Red.host1.eth[0].mac.queue packetRemoved:count 0
attr interpolationmode none
attr title "packets removed, count"
scalar Red.host1.eth[0].mac.queue packetRemoved:sum(packetBytes) 0
attr interpolationmode none
attr title "packets removed, sum(packetBytes)"
par Red.host1.eth[0].mac typename "\"inet.linklayer.ethernet.basic.EthernetMac\""
par Red.host1.eth[0].mac interfaceTableModule "\"Red.host1.interfaceTable\""
par Red.host1.eth[0].mac displayStringTextFormat "\"rate: %b\\nsent: %s, rcvd: %r\\nqueue: %q, drop: %d\""
par Red.host1.eth[0].mac sendRawBytes false
par Red.host1.eth[0].mac promiscuous false
par Red.host1.eth[0].mac duplexMode true
par Red.host1.eth[0].mac mtu 1500B
attr unit B
par Red.host1.eth[0].mac stopOperationExtraTime -1s
attr unit s
par Red.host1.eth[0].mac stopOperationTimeout 2s
attr unit s
scalar Red.host1.eth[0].mac "simulated time" 1.014333100328
scalar Red.host1.eth[0].mac full-duplex 1
scalar Red.host1.eth[0].mac "frames/sec sent" 14.788041517278
scalar Red.host1.eth[0].mac "frames/sec rcvd" 0.98586943448521
scalar Red.host1.eth[0].mac "bits/sec sent" 116001.34113927
scalar Red.host1.eth[0].mac "bits/sec rcvd" 504.76515045643
scalar Red.host1.eth[0].mac "rx channel idle (%)" 99.994321392057
scalar Red.host1.eth[0].mac "rx channel utilization (%)" 0.0056786079426348
scalar Red.host1.eth[0].mac rxPausePkUnits:count 0
attr interpolationmode none
attr title "pause units received, count"
scalar Red.host1.eth[0].mac rxPausePkUnits:sum 0
attr interpolationmode none
attr title "pause units received, sum"
scalar Red.host1.eth[0].mac txPausePkUnits:count 0
attr interpolationmode none
attr title "pause units sent, count"
scalar Red.host1.eth[0].mac txPausePkUnits:sum 0
attr interpolationmode none
attr title "pause units sent, sum"
scalar Red.host1.eth[0].mac rxPkOk:count 1
attr interpolationmode none
attr source rxPkOk
attr title "packets received OK, count"
scalar Red.host1.eth[0].mac rxPkOk:sum(packetBytes) 64
attr interpolationmode none
attr source rxPkOk
attr title "packets received OK, sum(packetBytes)"
scalar Red.host1.eth[0].mac txPk:count 15
attr interpolationmode none
attr source packetSentToLower
attr title "packets transmitted, count"
scalar Red.host1.eth[0].mac txPk:sum(packetBytes) 14708
attr interpolationmode none
attr source packetSentToLower
attr title "packets transmitted, sum(packetBytes)"
scalar Red.host1.eth[0].mac packetReceivedFromUpper:count 15
attr interpolationmode none
attr source packetReceivedFromUpper
attr title "packet bytes from higher layer, count"
scalar Red.host1.eth[0].mac packetReceivedFromUpper:sum(packetBytes) 14690
attr interpolationmode none
attr source packetReceivedFromUpper
attr title "packet bytes from higher layer, sum(packetBytes)"
scalar Red.host1.eth[0].mac passedUpPk:count 1
attr interpolationmode none
attr source packetSentToUpper
attr title "packets passed to higher layer, count"
scalar Red.host1.eth[0].mac passedUpPk:sum(packetBytes) 64
attr interpolationmode none
attr source packetSentToUpper
attr title "packets passed to higher layer, sum(packetBytes)"
scalar Red.host1.eth[0].mac packetDropIncorrectlyReceived:count 0
attr interpolationmode none
attr source packetDropReasonIsIncorrectlyReceived(packetDropped)
attr title "packet drop: incorrectly received, count"
scalar Red.host1.eth[0].mac packetDropIncorrectlyReceived:sum(packetBytes) 0
attr interpolationmode none
attr source packetDropReasonIsIncorrectlyReceived(packetDropped)
attr title "packet drop: incorrectly received, sum(packetBytes)"
scalar Red.host1.eth[0].mac packetDropInterfaceDown:count 0
attr interpolationmode none
attr source packetDropReasonIsInterfaceDown(packetDropped)
attr title "packet drop: interface down, count"
scalar Red.host1.eth[0].mac packetDropInterfaceDown:sum(packetBytes) 0
attr interpolationmode none
attr source packetDropReasonIsInterfaceDown(packetDropped)
attr title "packet drop: interface down, sum(packetBytes)"
scalar Red.host1.eth[0].mac packetDropNotAddressedToUs:count 0
attr interpolationmode none
attr source packetDropReasonIsNotAddressedToUs(packetDropped)
attr title "packet drop: not addressed to us, count"
scalar Red.host1.eth[0].mac packetDropNotAddressedToUs:sum(packetBytes) 0
attr interpolationmode none
attr source packetDropReasonIsNotAddressedToUs(packetDropped)
attr title "packet drop: not addressed to us, sum(packetBytes)"
par Red.host1.eth[0] typename "\"inet.linklayer.ethernet.EthernetInterface\""
par Red.host1.eth[0] displayStringTextFormat "\"%a (%i)\\n%m\""
par Red.host1.eth[0] recordPcap false
par Red.host1.eth[0] numPcapRecorders 0
par Red.host1.eth[0] interfaceTableModule "\"Red.host1.interfaceTable\""
par Red.host1.eth[0] address "\"0A-AA-00-00-00-01\""
par Red.host1.eth[0] duplexMode true
par Red.host1.eth[0] csmacdSupport false
par Red.host1.eth[0] bitrate 0bps
attr unit bps
par Red.host1.eth[0] fcsMode "\"declared\""
attr enum declared,computed
par Red.host1.ipv4.transportIn.channel typename "\"ned.IdealChannel\""
par Red.host1.ipv4.up.out[0].channel typename "\"ned.IdealChannel\""
par Red.host1.ipv4.lp.out[2].channel typename "\"ned.IdealChannel\""
par Red.host1.ipv4.ifIn.channel typename "\"ned.IdealChannel\""
par Red.host1.ipv4.configurator typename "\"inet.networklayer.configurator.ipv4.Ipv4NodeConfigurator\""
par Red.host1.ipv4.configurator interfaceTableModule "\"Red.host1.interfaceTable\""
par Red.host1.ipv4.configurator routingTableModule "\"Red.host1.ipv4.routingTable\""
par Red.host1.ipv4.configurator networkConfiguratorModule "\"configurator\""
par Red.host1.ipv4.configurator configureRoutingTable true
par Red.host1.ipv4.routingTable typename "\"inet.networklayer.ipv4.Ipv4RoutingTable\""
par Red.host1.ipv4.routingTable interfaceTableModule "\"Red.host1.interfaceTable\""
par Red.host1.ipv4.routingTable routerId "\"auto\""
par Red.host1.ipv4.routingTable netmaskRoutes "\"*\""
par Red.host1.ipv4.routingTable forwarding false
par Red.host1.ipv4.routingTable multicastForwarding false
par Red.host1.ipv4.routingTable useAdminDist false
par Red.host1.ipv4.routingTable routingFile "\"\""
par Red.host1.ipv4.natTable typename "\"inet.networklayer.ipv4.Ipv4NatTable\""
par Red.host1.ipv4.natTable networkProtocolModule "\"^.ip\""
par Red.host1.ipv4.natTable config "<config/> at content:1"
par Red.host1.ipv4.up typename "\"inet.common.MessageDispatcher\""
par Red.host1.ipv4.up displayStringTextFormat "\"processed %p pk (%l)\""
par Red.host1.ipv4.igmp typename "\"inet.networklayer.ipv4.Igmpv2\""
par Red.host1.ipv4.igmp interfaceTableModule "\"Red.host1.interfaceTable\""
par Red.host1.ipv4.igmp routingTableModule "\"Red.host1.ipv4.routingTable\""
par Red.host1.ipv4.igmp crcMode "\"declared\""
attr enum declared,computed
par Red.host1.ipv4.igmp enabled true
par Red.host1.ipv4.igmp robustnessVariable 2
par Red.host1.ipv4.igmp queryInterval 125s
attr unit s
par Red.host1.ipv4.igmp queryResponseInterval 10s
attr unit s
par Red.host1.ipv4.igmp groupMembershipInterval 260s
attr unit s
par Red.host1.ipv4.igmp otherQuerierPresentInterval 255s
attr unit s
par Red.host1.ipv4.igmp startupQueryInterval 31.25s
attr unit s
par Red.host1.ipv4.igmp startupQueryCount 2
par Red.host1.ipv4.igmp lastMemberQueryInterval 1s
attr unit s
par Red.host1.ipv4.igmp lastMemberQueryCount 2
par Red.host1.ipv4.igmp unsolicitedReportInterval 10s
attr unit s
par Red.host1.ipv4.icmp typename "\"inet.networklayer.ipv4.Icmp\""
par Red.host1.ipv4.icmp interfaceTableModule "\"Red.host1.interfaceTable\""
par Red.host1.ipv4.icmp routingTableModule "\"Red.host1.ipv4.routingTable\""
par Red.host1.ipv4.icmp crcMode "\"declared\""
attr enum declared,computed
par Red.host1.ipv4.icmp quoteLength 8B
attr unit B
par Red.host1.ipv4.mp typename "\"inet.common.MessageDispatcher\""
par Red.host1.ipv4.mp displayStringTextFormat "\"processed %p pk (%l)\""
par Red.host1.ipv4.ip typename "\"inet.networklayer.ipv4.Ipv4\""
par Red.host1.ipv4.ip interfaceTableModule "\"Red.host1.interfaceTable\""
par Red.host1.ipv4.ip routingTableModule "\"Red.host1.ipv4.routingTable\""
par Red.host1.ipv4.ip arpModule "\"Red.host1.ipv4.arp\""
par Red.host1.ipv4.ip icmpModule "\"Red.host1.ipv4.icmp\""
par Red.host1.ipv4.ip crcMode "\"declared\""
attr enum declared,computed
par Red.host1.ipv4.ip timeToLive 32
par Red.host1.ipv4.ip multicastTimeToLive 32
par Red.host1.ipv4.ip fragmentTimeout 60s
attr unit s
par Red.host1.ipv4.ip limitedBroadcast false
par Red.host1.ipv4.ip directBroadcastInterfaces "\"\""
scalar Red.host1.ipv4.ip packetDropAddressResolutionFailed:count 0
attr interpolationmode none
attr source packetDropReasonIsAddressResolutionFailed(packetDropped)
attr title "packet drop: address resolution failed, count"
scalar Red.host1.ipv4.ip packetDropAddressResolutionFailed:sum(packetBytes) 0
attr interpolationmode none
attr source packetDropReasonIsAddressResolutionFailed(packetDropped)
attr title "packet drop: address resolution failed, sum(packetBytes)"
scalar Red.host1.ipv4.ip packetDropHopLimitReached:count 0
attr interpolationmode none
attr source packetDropReasonIsHopLimitReached(packetDropped)
attr title "packet drop: hop limit reached, count"
scalar Red.host1.ipv4.ip packetDropHopLimitReached:sum(packetBytes) 0
attr interpolationmode none
attr source packetDropReasonIsHopLimitReached(packetDropped)
attr title "packet drop: hop limit reached, sum(packetBytes)"
scalar Red.host1.ipv4.ip packetDropForwardingDisabled:count 0
attr interpolationmode none
attr source packetDropReasonIsForwardingDisabled(packetDropped)
attr title "packet drop: forwarding disabled, count"
scalar Red.host1.ipv4.ip packetDropForwardingDisabled:sum(packetBytes) 0
attr interpolationmode none
attr source packetDropReasonIsForwardingDisabled(packetDropped)
attr title "packet drop: forwarding disabled, sum(packetBytes)"
scalar Red.host1.ipv4.ip packetDropNoInterfaceFound:count 0
attr interpolationmode none
attr source packetDropReasonIsNoInterfaceFound(packetDropped)
attr title "packet drop: no interface found, count"
scalar Red.host1.ipv4.ip packetDropNoInterfaceFound:sum(packetBytes) 0
attr interpolationmode none
attr source packetDropReasonIsNoInterfaceFound(packetDropped)
attr title "packet drop: no interface found, sum(packetBytes)"
scalar Red.host1.ipv4.ip packetDropNoRouteFound:count 0
attr interpolationmode none
attr source packetDropReasonIsNoRouteFound(packetDropped)
attr title "packet drop: no route found, count"
scalar Red.host1.ipv4.ip packetDropNoRouteFound:sum(packetBytes) 0
attr interpolationmode none
attr source packetDropReasonIsNoRouteFound(packetDropped)
attr title "packet drop: no route found, sum(packetBytes)"
scalar Red.host1.ipv4.ip packetDropUndefined:count 0
attr interpolationmode none
attr source packetDropReasonIsUndefined(packetDropped)
attr title "packet drop: undefined, count"
scalar Red.host1.ipv4.ip packetDropUndefined:sum(packetBytes) 0
attr interpolationmode none
attr source packetDropReasonIsUndefined(packetDropped)
attr title "packet drop: undefined, sum(packetBytes)"
par Red.host1.ipv4.arp typename "\"inet.networklayer.arp.ipv4.Arp\""
par Red.host1.ipv4.arp interfaceTableModule "\"Red.host1.interfaceTable\""
par Red.host1.ipv4.arp routingTableModule "\"Red.host1.ipv4.routingTable\""
par Red.host1.ipv4.arp retryTimeout 1s
attr unit s
par Red.host1.ipv4.arp retryCount 3
par Red.host1.ipv4.arp cacheTimeout 120s
attr unit s
par Red.host1.ipv4.arp proxyArpInterfaces "\"\""
scalar Red.host1.ipv4.arp arpResolutionFailed:count 0
attr title "ARP failed resolutions, count"
scalar Red.host1.ipv4.arp arpResolutionCompleted:count 1
attr title "ARP completed resolutions, count"
scalar Red.host1.ipv4.arp arpResolutionInitiated:count 1
attr title "ARP initiated resolutions, count"
scalar Red.host1.ipv4.arp arpReplySent:count 0
attr source arpReplySent
attr title "ARP replies sent, count"
scalar Red.host1.ipv4.arp arpReplySent:sum(packetBytes) 0
attr source arpReplySent
attr title "ARP replies sent, sum(packetBytes)"
scalar Red.host1.ipv4.arp arpRequestSent:count 1
attr source arpRequestSent
attr title "ARP request sent, count"
scalar Red.host1.ipv4.arp arpRequestSent:sum(packetBytes) 28
attr source arpRequestSent
attr title "ARP request sent, sum(packetBytes)"
par Red.host1.ipv4.lp typename "\"inet.common.MessageDispatcher\""
par Red.host1.ipv4.lp displayStringTextFormat "\"processed %p pk (%l)\""
par Red.host1.ipv4 typename "\"inet.networklayer.ipv4.Ipv4NetworkLayer\""
par Red.host1.ipv4 forwarding false
par Red.host1.ipv4 multicastForwarding false
par Red.host1.ipv4 interfaceTableModule "\"Red.host1.interfaceTable\""
par Red.host1.ipv4 displayStringTextFormat "\"%i\""
par Red.host1.nl typename "\"inet.common.MessageDispatcher\""
par Red.host1.nl displayStringTextFormat "\"processed %p pk (%l)\""
par Red.host1.udp typename "\"inet.transportlayer.udp.Udp\""
par Red.host1.udp interfaceTableModule "\"Red.host1.interfaceTable\""
par Red.host1.udp icmpModule "\"^.ipv4.icmp\""
par Red.host1.udp icmpv6Module "\"^.ipv6.icmpv6\""
par Red.host1.udp crcMode "\"declared\""
attr enum disabled,declared,computed
scalar Red.host1.udp packetReceived:count 0
attr interpolationmode none
attr source packetReceived
attr title "packets received, count"
scalar Red.host1.udp packetReceived:sum(packetBytes) 0
attr interpolationmode none
attr source packetReceived
attr title "packets received, sum(packetBytes)"
scalar Red.host1.udp packetSent:count 15
attr interpolationmode none
attr source packetSent
attr title "packets sent, count"
scalar Red.host1.udp packetSent:sum(packetBytes) 15120
attr interpolationmode none
attr source packetSent
attr title "packets sent, sum(packetBytes)"
scalar Red.host1.udp passedUpPk:count 0
attr interpolationmode none
attr source packetSentToUpper
attr title "packets passed up, count"
scalar Red.host1.udp droppedPkWrongPort:count 0
attr interpolationmode none
attr source packetDropReasonIsNoPortFound(packetDropped)
attr title "packets dropped (wrong port), count"
scalar Red.host1.udp droppedPkBadChecksum:count 0
attr interpolationmode none
attr source packetDropReasonIsIncorrectlyReceived(packetDropped)
attr title "packets dropped (checksum error), count"
par Red.host1.tcp typename "\"inet.transportlayer.tcp.Tcp\""
par Red.host1.tcp crcMode "\"declared\""
attr enum declared,computed
par Red.host1.tcp advertisedWindow 7504
par Red.host1.tcp delayedAcksEnabled false
par Red.host1.tcp nagleEnabled true
par Red.host1.tcp limitedTransmitEnabled false
par Red.host1.tcp increasedIWEnabled false
par Red.host1.tcp sackSupport false
par Red.host1.tcp windowScalingSupport false
par Red.host1.tcp windowScalingFactor -1
par Red.host1.tcp timestampSupport false
par Red.host1.tcp mss 536
par Red.host1.tcp msl 120s
attr unit s
par Red.host1.tcp tcpAlgorithmClass "\"TcpReno\""
attr enum TcpVegas,TcpWestwood,TcpNewReno,TcpReno,TcpTahoe,TcpNoCongestionControl
par Red.host1.tcp useDataNotification false
par Red.host1.tcp dupthresh 3
par Red.host1.tcp initialSsthresh 4294967295
par Red.host1.tcp stopOperationExtraTime 0s
attr unit s
par Red.host1.tcp stopOperationTimeout 2s
attr unit s
par Red.host1.tcp ecnWillingness false
par Red.host1.tcp dctcpGamma 0.0625
par Red.host1.tn typename "\"inet.common.MessageDispatcher\""
par Red.host1.tn displayStringTextFormat "\"processed %p pk (%l)\""
par Red.host1.app[0] typename "\"inet.applications.udpapp.UdpBasicBurst\""
par Red.host1.app[0] interfaceTableModule "\"Red.host1.interfaceTable\""
par Red.host1.app[0] destAddresses "\"host8\""
par Red.host1.app[0] excludeLocalDestAddresses true
par Red.host1.app[0] chooseDestAddrMode "\"perBurst\""
attr enum once,perBurst,perSend
par Red.host1.app[0] destAddrRNG 0
par Red.host1.app[0] localPort 1000
par Red.host1.app[0] destPort 1000
par Red.host1.app[0] startTime 1s
attr unit s
par Red.host1.app[0] stopTime -1s
attr unit s
par Red.host1.app[0] messageLength 1000B
attr unit B
par Red.host1.app[0] burstDuration "0.5s+uniform(0s, 0.5s)"
attr unit s
par Red.host1.app[0] sleepDuration 0.01s
attr unit s
par Red.host1.app[0] sendInterval "0.001s+uniform(-0.0001s, 0.0001s)"
attr unit s
par Red.host1.app[0] delayLimit 0s
attr unit s
par Red.host1.app[0] timeToLive -1
par Red.host1.app[0] dontFragment false
par Red.host1.app[0] dscp -1
par Red.host1.app[0] tos -1
par Red.host1.app[0] stopOperationExtraTime -1s
attr unit s
par Red.host1.app[0] stopOperationTimeout 2s
attr unit s
scalar Red.host1.app[0] "Total sent" 15
scalar Red.host1.app[0] "Total received" 0
scalar Red.host1.app[0] "Total deleted" 0
scalar Red.host1.app[0] packetReceived:count 0
attr interpolationmode none
attr source packetReceived
attr title "packets received, count"
scalar Red.host1.app[0] packetReceived:sum(packetBytes) 0
attr interpolationmode none
attr source packetReceived
attr title "packets received, sum(packetBytes)"
statistic Red.host1.app[0] endToEndDelay:histogram
field count 0
field mean -nan
field stddev -nan
field min -nan
field max -nan
field sum 0
field sqrsum 0
attr interpolationmode none
attr source dataAge(packetReceived)
attr title "delay, histogram"
attr unit s
bin	-inf	0
bin	0	0
bin	1	0
scalar Red.host1.app[0] packetSent:count 15
attr interpolationmode none
attr source packetSent
attr title "packets sent, count"
scalar Red.host1.app[0] packetSent:sum(packetBytes) 15000
attr interpolationmode none
attr source packetSent
attr title "packets sent, sum(packetBytes)"
scalar Red.host1.app[0] dropPk:count 0
attr interpolationmode none
attr source packetDropped
attr title "packets dropped, count"
scalar Red.host1.app[0] dropPk:sum(packetBytes) 0
attr interpolationmode none
attr source packetDropped
attr title "packets dropped, sum(packetBytes)"
scalar Red.host1.app[0] outOfOrderPk:count 0
attr interpolationmode none
attr source outOfOrderPk
attr title "packets received out of order, count"
scalar Red.host1.app[0] outOfOrderPk:sum(packetBytes) 0
attr interpolationmode none
attr source outOfOrderPk
attr title "packets received out of order, sum(packetBytes)"
par Red.host1.at typename "\"inet.common.MessageDispatcher\""
par Red.host1.at displayStringTextFormat "\"processed %p pk (%l)\""
par Red.host1 typename "\"inet.node.inet.StandardHost\""
par Red.host1 hasStatus false
par Red.host1 osgModel "\"\""
par Red.host1 osgModelColor "\"\""
par Red.host1 canvasImage "\"\""
par Red.host1 canvasImageColor "\"\""
par Red.host1 recordPcap false
par Red.host1 numPcapRecorders 0
par Red.host1 numLoInterfaces 1
par Red.host1 numWlanInterfaces 0
par Red.host1 numEthInterfaces 0
par Red.host1 numPppInterfaces 0
par Red.host1 numTunInterfaces 0
par Red.host1 numVirtInterfaces 0
par Red.host1 hasIpv4 true
par Red.host1 hasIpv6 false
par Red.host1 hasGn false
par Red.host1 forwarding false
par Red.host1 multicastForwarding false
par Red.host1 hasUdp true
par Red.host1 hasTcp true
par Red.host1 hasSctp false
par Red.host1 numApps 1
par Red.host2.ethg$i[0].channel typename "\"ned.IdealChannel\""
par Red.host2.eth[0].phys$o.channel typename "\"ned.IdealChannel\""
par Red.host2.interfaceTable typename "\"inet.networklayer.common.InterfaceTable\""
par Red.host2.interfaceTable displayAddresses false
par Red.host2.li typename "\"inet.common.MessageDispatcher\""
par Red.host2.li displayStringTextFormat "\"processed %p pk (%l)\""
par Red.host2.lo[0].upperLayerIn.channel typename "\"ned.IdealChannel\""
par Red.host2.lo[0].lo.upperLayerOut.channel typename "\"ned.IdealChannel\""
par Red.host2.lo[0].lo typename "\"inet.linklayer.loopback.Loopback\""
par Red.host2.lo[0].lo interfaceTableModule "\"Red.host2.interfaceTable\""
par Red.host2.lo[0].lo mtu 4470B
attr unit B
scalar Red.host2.lo[0].lo rcvdPkFromHl:count 0
attr interpolationmode none
attr source packetReceivedFromUpper
attr title "packets received from higher layer, count"
scalar Red.host2.lo[0].lo rcvdPkFromHl:sum(packetBytes) 0
attr interpolationmode none
attr source packetReceivedFromUpper
attr title "packets received from higher layer, sum(packetBytes)"
scalar Red.host2.lo[0].lo passedUpPk:count 0
attr interpolationmode none
attr source packetSentToUpper
attr title "packets passed to higher layer, count"
scalar Red.host2.lo[0].lo passedUpPk:sum(packetBytes) 0
attr interpolationmode none
attr source packetSentToUpper
attr title "packets passed to higher layer, sum(packetBytes)"
par Red.host2.lo[0] typename "\"inet.linklayer.loopback.LoopbackInterface\""
par Red.host2.lo[0] displayStringTextFormat "\"%a (%i)\\n%m\""
par Red.host2.lo[0] recordPcap false
par Red.host2.lo[0] numPcapRecorders 0
par Red.host2.lo[0] interfaceTableModule "\"Red.host2.interfaceTable\""
par Red.host2.eth[0].mac.phys$o.channel typename "\"ned.IdealChannel\""
par Red.host2.eth[0].phys$i.channel typename "\"ned.IdealChannel\""
par Red.host2.eth[0].encap.upperLayerOut.channel typename "\"ned.IdealChannel\""
par Red.host2.eth[0].upperLayerIn.channel typename "\"ned.IdealChannel\""
par Red.host2.eth[0].encap typename "\"inet.linklayer.ethernet.basic.EthernetEncapsulation\""
par Red.host2.eth[0].encap interfaceTableModule "\"Red.host2.interfaceTable\""
par Red.host2.eth[0].encap useSNAP false
par Red.host2.eth[0].encap fcsMode "\"declared\""
attr enum declared,computed
par Red.host2.eth[0].encap registerProtocol false
par Red.host2.eth[0].encap stopOperationExtraTime -1s
attr unit s
par Red.host2.eth[0].encap stopOperationTimeout 2s
attr unit s
scalar Red.host2.eth[0].encap pauseSent:count 0
attr title "pause sent, count"
scalar Red.host2.eth[0].encap pauseSent:sum 0
attr title "pause sent, sum"
scalar Red.host2.eth[0].encap decapPk:count 1
attr interpolationmode none
attr source decapPk
attr title "packets decapsulated, count"
scalar Red.host2.eth[0].encap decapPk:sum(packetBytes) 46
attr interpolationmode none
attr source decapPk
attr title "packets decapsulated, sum(packetBytes)"
scalar Red.host2.eth[0].encap encapPk:count 0
attr interpolationmode none
attr source encapPk
attr title "packets encapsulated, count"
scalar Red.host2.eth[0].encap encapPk:sum(packetBytes) 0
attr interpolationmode none
attr source encapPk
attr title "packets encapsulated, sum(packetBytes)"
par Red.host2.eth[0].mac.queue typename "\"inet.linklayer.ethernet.common.EthernetQueue\""
par Red.host2.eth[0].mac.queue displayStringTextFormat "\"contains %p pk (%l) pushed %u\\npulled %o removed %r dropped %d\""
par Red.host2.eth[0].mac.queue packetCapacity 10000
par Red.host2.eth[0].mac.queue dataCapacity -1b
attr unit b
par Red.host2.eth[0].mac.queue dropperClass "\"inet::queueing::PacketAtCollectionEndDropper\""
par Red.host2.eth[0].mac.queue comparatorClass "\"inet::EthernetFrameTypeComparator\""
par Red.host2.eth[0].mac.queue bufferModule "\"\""
scalar Red.host2.eth[0].mac.queue packetPulled:count 0
attr interpolationmode none
attr title "packet pulled, count"
scalar Red.host2.eth[0].mac.queue packetPulled:sum(packetBytes) 0
attr interpolationmode none
attr title "packet pulled, sum(packetBytes)"
statistic Red.host2.eth[0].mac.queue queueingTime:histogram
field count 0
field mean -nan
field stddev -nan
field min -nan
field max -nan
field sum 0
field sqrsum 0
attr interpolationmode none
attr source queueingTime(packetPulled)
attr title "queueing times, histogram"
attr unit s
bin	-inf	0
bin	0	0
bin	1	0
scalar Red.host2.eth[0].mac.queue queueLength:max -nan
attr autoWarmupFilter false
attr interpolationmode sample-hold
attr source "warmup(count(packetPushed) - count(packetPulled) - count(packetRemoved) - count(packetDropped))"
attr title "queue length, max"
attr type int
scalar Red.host2.eth[0].mac.queue queueLength:timeavg -nan
attr autoWarmupFilter false
attr interpolationmode sample-hold
attr source "warmup(count(packetPushed) - count(packetPulled) - count(packetRemoved) - count(packetDropped))"
attr title "queue length, timeavg"
attr type int
scalar Red.host2.eth[0].mac.queue packetPushed:count 0
attr interpolationmode none
attr title "packet pushed, count"
scalar Red.host2.eth[0].mac.queue packetPushed:sum(packetBytes) 0
attr interpolationmode none
attr title "packet pushed, sum(packetBytes)"
scalar Red.host2.eth[0].mac.queue packetDropQueueOverflow:count 0
attr interpolationmode none
attr source packetDropReasonIsQueueOverflow(packetDropped)
attr title "packet drops: queue overflow, count"
scalar Red.host2.eth[0].mac.queue packetDropQueueOverflow:sum(packetBytes) 0
attr interpolationmode none
attr source packetDropReasonIsQueueOverflow(packetDropped)
attr title "packet drops: queue overflow, sum(packetBytes)"
scalar Red.host2.eth[0].mac.queue packetRemoved:count 0
attr interpolationmode none
attr title "packets removed, count"
scalar Red.host2.eth[0].mac.queue packetRemoved:sum(packetBytes) 0
attr interpolationmode none
attr title "packets removed, sum(packetBytes)"
par Red.host2.eth[0].mac typename "\"inet.linklayer.ethernet.basic.EthernetMac\""
par Red.host2.eth[0].mac interfaceTableModule "\"Red.host2.interfaceTable\""
par Red.host2.eth[0].mac displayStringTextFormat "\"rate: %b\\nsent: %s, rcvd: %r\\nqueue: %q, drop: %d\""
par Red.host2.eth[0].mac sendRawBytes false
par Red.host2.eth[0].mac promiscuous false
par Red.host2.eth[0].mac duplexMode true
par Red.host2.eth[0].mac mtu 1500B
attr unit B
par Red.host2.eth[0].mac stopOperationExtraTime -1s
attr unit s
par Red.host2.eth[0].mac stopOperationTimeout 2s
attr unit s
scalar Red.host2.eth[0].mac "simulated time" 1.014333100328
scalar Red.host2.eth[0].mac full-duplex 1
scalar Red.host2.eth[0].mac "frames/sec sent" 0
scalar Red.host2.eth[0].mac "frames/sec rcvd" 0.98586943448521
scalar Red.host2.eth[0].mac "bits/sec sent" 0
scalar Red.host2.eth[0].mac "bits/sec rcvd" 504.76515045643
scalar Red.host2.eth[0].mac "rx channel idle (%)" 99.994321392057
scalar Red.host2.eth[0].mac "rx channel utilization (%)" 0.0056786079426348
scalar Red.host2.eth[0].mac rxPausePkUnits:count 0
attr interpolationmode none
attr title "pause units received, count"
scalar Red.host2.eth[0].mac rxPausePkUnits:sum 0
attr interpolationmode none
attr title "pause units received, sum"
scalar Red.host2.eth[0].mac txPausePkUnits:count 0
attr interpolationmode none
attr title "pause units sent, count"
scalar Red.host2.eth[0].mac txPausePkUnits:sum 0
attr interpolationmode none
attr title "pause units sent, sum"
scalar Red.host2.eth[0].mac rxPkOk:count 1
attr interpolationmode none
attr source rxPkOk
attr title "packets received OK, count"
scalar Red.host2.eth[0].mac rxPkOk:sum(packetBytes) 64
attr interpolationmode none
attr source rxPkOk
attr title "packets received OK, sum(packetBytes)"
scalar Red.host2.eth[0].mac txPk:count 0
attr interpolationmode none
attr source packetSentToLower
attr title "packets transmitted, count"
scalar Red.host2.eth[0].mac txPk:sum(packetBytes) 0
attr interpolationmode none
attr source packetSentToLower
attr title "packets transmitted, sum(packetBytes)"
scalar Red.host2.eth[0].mac packetReceivedFromUpper:count 0
attr interpolationmode none
attr source packetReceivedFromUpper
attr title "packet bytes from higher layer, count"
scalar Red.host2.eth[0].mac packetReceivedFromUpper:sum(packetBytes) 0
attr interpolationmode none
attr source packetReceivedFromUpper
attr title "packet bytes from higher layer, sum(packetBytes)"
scalar Red.host2.eth[0].mac passedUpPk:count 1
attr interpolationmode none
attr source packetSentToUpper
attr title "packets passed to higher layer, count"
scalar Red.host2.eth[0].mac passedUpPk:sum(packetBytes) 64
attr interpolationmode none
attr source packetSentToUpper
attr title "packets passed to higher layer, sum(packetBytes)"
scalar Red.host2.eth[0].mac packetDropIncorrectlyReceived:count 0
attr interpolationmode none
attr source packetDropReasonIsIncorrectlyReceived(packetDropped)
attr title "packet drop: incorrectly received, count"
scalar Red.host2.eth[0].mac packetDropIncorrectlyReceived:sum(packetBytes) 0
attr interpolationmode none
attr source packetDropReasonIsIncorrectlyReceived(packetDropped)
attr title "packet drop: incorrectly received, sum(packetBytes)"
scalar Red.host2.eth[0].mac packetDropInterfaceDown:count 0
attr interpolationmode none
attr source packetDropReasonIsInterfaceDown(packetDropped)
attr title "packet drop: interface down, count"
scalar Red.host2.eth[0].mac packetDropInterfaceDown:sum(packetBytes) 0
attr interpolationmode none
attr source packetDropReasonIsInterfaceDown(packetDropped)
attr title "packet drop: interface down, sum(packetBytes)"
scalar Red.host2.eth[0].mac packetDropNotAddressedToUs:count 0
attr interpolationmode none
attr source packetDropReasonIsNotAddressedToUs(packetDropped)
attr title "packet drop: not addressed to us, count"
scalar Red.host2.eth[0].mac packetDropNotAddressedToUs:sum(packetBytes) 0
attr interpolationmode none
attr source packetDropReasonIsNotAddressedToUs(packetDropped)
attr title "packet drop: not addressed to us, sum(packetBytes)"
par Red.host2.eth[0] typename "\"inet.linklayer.ethernet.EthernetInterface\""
par Red.host2.eth[0] displayStringTextFormat "\"%a (%i)\\n%m\""
par Red.host2.eth[0] recordPcap false
par Red.host2.eth[0] numPcapRecorders 0
par Red.host2.eth[0] interfaceTableModule "\"Red.host2.interfaceTable\""
par Red.host2.eth[0] address "\"0A-AA-00-00-00-02\""
par Red.host2.eth[0] duplexMode true
par Red.host2.eth[0] csmacdSupport false
par Red.host2.eth[0] bitrate 0bps
attr unit bps
par Red.host2.eth[0] fcsMode "\"declared\""
attr enum declared,computed
par Red.host2.ipv4.transportIn.channel typename "\"ned.IdealChannel\""
par Red.host2.ipv4.up.out[0].channel typename "\"ned.IdealChannel\""
par Red.host2.ipv4.lp.out[2].channel typename "\"ned.IdealChannel\""
par Red.host2.ipv4.ifIn.channel typename "\"ned.IdealChannel\""
par Red.host2.ipv4.configurator typename "\"inet.networklayer.configurator.ipv4.Ipv4NodeConfigurator\""
par Red.host2.ipv4.configurator interfaceTableModule "\"Red.host2.interfaceTable\""
par Red.host2.ipv4.configurator routingTableModule "\"Red.host2.ipv4.routingTable\""
par Red.host2.ipv4.configurator networkConfiguratorModule "\"configurator\""
par Red.host2.ipv4.configurator configureRoutingTable true
par Red.host2.ipv4.routingTable typename "\"inet.networklayer.ipv4.Ipv4RoutingTable\""
par Red.host2.ipv4.routingTable interfaceTableModule "\"Red.host2.interfaceTable\""
par Red.host2.ipv4.routingTable routerId "\"auto\""
par Red.host2.ipv4.routingTable netmaskRoutes "\"*\""
par Red.host2.ipv4.routingTable forwarding false
par Red.host2.ipv4.routingTable multicastForwarding false
par Red.host2.ipv4.routingTable useAdminDist false
par Red.host2.ipv4.routingTable routingFile "\"\""
par Red.host2.ipv4.natTable typename "\"inet.networklayer.ipv4.Ipv4NatTable\""
par Red.host2.ipv4.natTable networkProtocolModule "\"^.ip\""
par Red.host2.ipv4.natTable config "<config/> at content:1"
par Red.host2.ipv4.up typename "\"inet.common.MessageDispatcher\""
par Red.host2.ipv4.up displayStringTextFormat "\"processed %p pk (%l)\""
par Red.host2.ipv4.igmp typename "\"inet.networklayer.ipv4.Igmpv2\""
par Red.host2.ipv4.igmp interfaceTableModule "\"Red.host2.interfaceTable\""
par Red.host2.ipv4.igmp routingTableModule "\"Red.host2.ipv4.routingTable\""
par Red.host2.ipv4.igmp crcMode "\"declared\""
attr enum declared,computed
par Red.host2.ipv4.igmp enabled true
par Red.host2.ipv4.igmp robustnessVariable 2
par Red.host2.ipv4.igmp queryInterval 125s
attr unit s
par Red.host2.ipv4.igmp queryResponseInterval 10s
attr unit s
par Red.host2.ipv4.igmp groupMembershipInterval 260s
attr unit s
par Red.host2.ipv4.igmp otherQuerierPresentInterval 255s
attr unit s
par Red.host2.ipv4.igmp startupQueryInterval 31.25s
attr unit s
par Red.host2.ipv4.igmp startupQueryCount 2
par Red.host2.ipv4.igmp lastMemberQueryInterval 1s
attr unit s
par Red.host2.ipv4.igmp lastMemberQueryCount 2
par Red.host2.ipv4.igmp unsolicitedReportInterval 10s
attr unit s
par Red.host2.ipv4.icmp typename "\"inet.networklayer.ipv4.Icmp\""
par Red.host2.ipv4.icmp interfaceTableModule "\"Red.host2.interfaceTable\""
par Red.host2.ipv4.icmp routingTableModule "\"Red.host2.ipv4.routingTable\""
par Red.host2.ipv4.icmp crcMode "\"declared\""
attr enum declared,computed
par Red.host2.ipv4.icmp quoteLength 8B
attr unit B
par Red.host2.ipv4.mp typename "\"inet.common.MessageDispatcher\""
par Red.host2.ipv4.mp displayStringTextFormat "\"processed %p pk (%l)\""
par Red.host2.ipv4.ip typename "\"inet.networklayer.ipv4.Ipv4\""
par Red.host2.ipv4.ip interfaceTableModule "\"Red.host2.interfaceTable\""
par Red.host2.ipv4.ip routingTableModule "\"Red.host2.ipv4.routingTable\""
par Red.host2.ipv4.ip arpModule "\"Red.host2.ipv4.arp\""
par Red.host2.ipv4.ip icmpModule "\"Red.host2.ipv4.icmp\""
par Red.host2.ipv4.ip crcMode "\"declared\""
attr enum declared,computed
par Red.host2.ipv4.ip timeToLive 32
par Red.host2.ipv4.ip multicastTimeToLive 32
par Red.host2.ipv4.ip fragmentTimeout 60s
attr unit s
par Red.host2.ipv4.ip limitedBroadcast false
par Red.host2.ipv4.ip directBroadcastInterfaces "\"\""
scalar Red.host2.ipv4.ip packetDropAddressResolutionFailed:count 0
attr interpolationmode none
attr source packetDropReasonIsAddressResolutionFailed(packetDropped)
attr title "packet drop: address resolution failed, count"
scalar Red.host2.ipv4.ip packetDropAddressResolutionFailed:sum(packetBytes) 0
attr interpolationmode none
attr source packetDropReasonIsAddressResolutionFailed(packetDropped)
attr title "packet drop: address resolution failed, sum(packetBytes)"
scalar Red.host2.ipv4.ip packetDropHopLimitReached:count 0
attr interpolationmode none
attr source packetDropReasonIsHopLimitReached(packetDropped)
attr title "packet drop: hop limit reached, count"
scalar Red.host2.ipv4.ip packetDropHopLimitReached:sum(packetBytes) 0
attr interpolationmode none
attr source packetDropReasonIsHopLimitReached(packetDropped)
attr title "packet drop: hop limit reached, sum(packetBytes)"
scalar Red.host2.ipv4.ip packetDropForwardingDisabled:count 0
attr interpolationmode none
attr source packetDropReasonIsForwardingDisabled(packetDropped)
attr title "packet drop: forwarding disabled, count"
scalar Red.host2.ipv4.ip packetDropForwardingDisabled:sum(packetBytes) 0
attr interpolationmode none
attr source packetDropReasonIsForwardingDisabled(packetDropped)
attr title "packet drop: forwarding disabled, sum(packetBytes)"
scalar Red.host2.ipv4.ip packetDropNoInterfaceFound:count 0
attr interpolationmode none
attr source packetDropReasonIsNoInterfaceFound(packetDropped)
attr title "packet drop: no interface found, count"
scalar Red.host2.ipv4.ip packetDropNoInterfaceFound:sum(packetBytes) 0
attr interpolationmode none
attr source packetDropReasonIsNoInterfaceFound(packetDropped)
attr title "packet drop: no interface found, sum(packetBytes)"
scalar Red.host2.ipv4.ip packetDropNoRouteFound:count 0
attr interpolationmode none
attr source packetDropReasonIsNoRouteFound(packetDropped)
attr title "packet drop: no route found, count"
scalar Red.host2.ipv4.ip packetDropNoRouteFound:sum(packetBytes) 0
attr interpolationmode none
attr source packetDropReasonIsNoRouteFound(packetDropped)
attr title "packet drop: no route found, sum(packetBytes)"
scalar Red.host2.ipv4.ip packetDropUndefined:count 0
attr interpolationmode none
attr source packetDropReasonIsUndefined(packetDropped)
attr title "packet drop: undefined, count"
scalar Red.host2.ipv4.ip packetDropUndefined:sum(packetBytes) 0
attr interpolationmode none
attr source packetDropReasonIsUndefined(packetDropped)
attr title "packet drop: undefined, sum(packetBytes)"
par Red.host2.ipv4.arp typename "\"inet.networklayer.arp.ipv4.Arp\""
par Red.host2.ipv4.arp interfaceTableModule "\"Red.host2.interfaceTable\""
par Red.host2.ipv4.arp routingTableModule "\"Red.host2.ipv4.routingTable\""
par Red.host2.ipv4.arp retryTimeout 1s
attr unit s
par Red.host2.ipv4.arp retryCount 3
par Red.host2.ipv4.arp cacheTimeout 120s
attr unit s
par Red.host2.ipv4.arp proxyArpInterfaces "\"\""
scalar Red.host2.ipv4.arp arpResolutionFailed:count 0
attr title "ARP failed resolutions, count"
scalar Red.host2.ipv4.arp arpResolutionCompleted:count 0
attr title "ARP completed resolutions, count"
scalar Red.host2.ipv4.arp arpResolutionInitiated:count 0
attr title "ARP initiated resolutions, count"
scalar Red.host2.ipv4.arp arpReplySent:count 0
attr source arpReplySent
attr title "ARP replies sent, count"
scalar Red.host2.ipv4.arp arpReplySent:sum(packetBytes) 0
attr source arpReplySent
attr title "ARP replies sent, sum(packetBytes)"
scalar Red.host2.ipv4.arp arpRequestSent:count 0
attr source arpRequestSent
attr title "ARP request sent, count"
scalar Red.host2.ipv4.arp arpRequestSent:sum(packetBytes) 0
attr source arpRequestSent
attr title "ARP request sent, sum(packetBytes)"
par Red.host2.ipv4.lp typename "\"inet.common.MessageDispatcher\""
par Red.host2.ipv4.lp displayStringTextFormat "\"processed %p pk (%l)\""
par Red.host2.ipv4 typename "\"inet.networklayer.ipv4.Ipv4NetworkLayer\""
par Red.host2.ipv4 forwarding false
par Red.host2.ipv4 multicastForwarding false
par Red.host2.ipv4 interfaceTableModule "\"Red.host2.interfaceTable\""
par Red.host2.ipv4 displayStringTextFormat "\"%i\""
par Red.host2.nl typename "\"inet.common.MessageDispatcher\""
par Red.host2.nl displayStringTextFormat "\"processed %p pk (%l)\""
par Red.host2.udp typename "\"inet.transportlayer.udp.Udp\""
par Red.host2.udp interfaceTableModule "\"Red.host2.interfaceTable\""
par Red.host2.udp icmpModule "\"^.ipv4.icmp\""
par Red.host2.udp icmpv6Module "\"^.ipv6.icmpv6\""
par Red.host2.udp crcMode "\"declared\""
attr enum disabled,declared,computed
scalar Red.host2.udp packetReceived:count 0
attr interpolationmode none
attr source packetReceived
attr title "packets received, count"
scalar Red.host2.udp packetReceived:sum(packetBytes) 0
attr interpolationmode none
attr source packetReceived
attr title "packets received, sum(packetBytes)"
scalar Red.host2.udp packetSent:count 0
attr interpolationmode none
attr source packetSent
attr title "packets sent, count"
scalar Red.host2.udp packetSent:sum(packetBytes) 0
attr interpolationmode none
attr source packetSent
attr title "packets sent, sum(packetBytes)"
scalar Red.host2.udp passedUpPk:count 0
attr interpolationmode none
attr source packetSentToUpper
attr title "packets passed up, count"
scalar Red.host2.udp droppedPkWrongPort:count 0
attr interpolationmode none
attr source packetDropReasonIsNoPortFound(packetDropped)
attr title "packets dropped (wrong port), count"
scalar Red.host2.udp droppedPkBadChecksum:count 0
attr interpolationmode none
attr source packetDropReasonIsIncorrectlyReceived(packetDropped)
attr title "packets dropped (checksum error), count"
par Red.host2.tcp typename "\"inet.transportlayer.tcp.Tcp\""
par Red.host2.tcp crcMode "\"declared\""
attr enum declared,computed
par Red.host2.tcp advertisedWindow 7504
par Red.host2.tcp delayedAcksEnabled false
par Red.host2.tcp nagleEnabled true
par Red.host2.tcp limitedTransmitEnabled false
par Red.host2.tcp increasedIWEnabled false
par Red.host2.tcp sackSupport false
par Red.host2.tcp windowScalingSupport false
par Red.host2.tcp windowScalingFactor -1
par Red.host2.tcp timestampSupport false
par Red.host2.tcp mss 536
par Red.host2.tcp msl 120s
attr unit s
par Red.host2.tcp tcpAlgorithmClass "\"TcpReno\""
attr enum TcpVegas,TcpWestwood,TcpNewReno,TcpReno,TcpTahoe,TcpNoCongestionControl
par Red.host2.tcp useDataNotification false
par Red.host2.tcp dupthresh 3
par Red.host2.tcp initialSsthresh 4294967295
par Red.host2.tcp stopOperationExtraTime 0s
attr unit s
par Red.host2.tcp stopOperationTimeout 2s
attr unit s
par Red.host2.tcp ecnWillingness false
par Red.host2.tcp dctcpGamma 0.0625
par Red.host2.tn typename "\"inet.common.MessageDispatcher\""
par Red.host2.tn displayStringTextFormat "\"processed %p pk (%l)\""
par Red.host2.app[0] typename "\"inet.applications.udpapp.UdpBasicBurst\""
par Red.host2.app[0] interfaceTableModule "\"Red.host2.interfaceTable\""
par Red.host2.app[0] destAddresses "\"\""
par Red.host2.app[0] excludeLocalDestAddresses true
par Red.host2.app[0] chooseDestAddrMode "\"perBurst\""
attr enum once,perBurst,perSend
par Red.host2.app[0] destAddrRNG 0
par Red.host2.app[0] localPort 1000
par Red.host2.app[0] destPort 1000
par Red.host2.app[0] startTime 1s
attr unit s
par Red.host2.app[0] stopTime -1s
attr unit s
par Red.host2.app[0] messageLength 1000B
attr unit B
par Red.host2.app[0] burstDuration "0.5s+uniform(0s, 0.5s)"
attr unit s
par Red.host2.app[0] sleepDuration 0.01s
attr unit s
par Red.host2.app[0] sendInterval "0.001s+uniform(-0.0001s, 0.0001s)"
attr unit s
par Red.host2.app[0] delayLimit 0s
attr unit s
par Red.host2.app[0] timeToLive -1
par Red.host2.app[0] dontFragment false
par Red.host2.app[0] dscp -1
par Red.host2.app[0] tos -1
par Red.host2.app[0] stopOperationExtraTime -1s
attr unit s
par Red.host2.app[0] stopOperationTimeout 2s
attr unit s
scalar Red.host2.app[0] "Total sent" 0
scalar Red.host2.app[0] "Total received" 0
scalar Red.host2.app[0] "Total deleted" 0
scalar Red.host2.app[0] packetReceived:count 0
attr interpolationmode none
attr source packetReceived
attr title "packets received, count"
scalar Red.host2.app[0] packetReceived:sum(packetBytes) 0
attr interpolationmode none
attr source packetReceived
attr title "packets received, sum(packetBytes)"
statistic Red.host2.app[0] endToEndDelay:histogram
field count 0
field mean -nan
field stddev -nan
field min -nan
field max -nan
field sum 0
field sqrsum 0
attr interpolationmode none
attr source dataAge(packetReceived)
attr title "delay, histogram"
attr unit s
bin	-inf	0
bin	0	0
bin	1	0
scalar Red.host2.app[0] packetSent:count 0
attr interpolationmode none
attr source packetSent
attr title "packets sent, count"
scalar Red.host2.app[0] packetSent:sum(packetBytes) 0
attr interpolationmode none
attr source packetSent
attr title "packets sent, sum(packetBytes)"
scalar Red.host2.app[0] dropPk:count 0
attr interpolationmode none
attr source packetDropped
attr title "packets dropped, count"
scalar Red.host2.app[0] dropPk:sum(packetBytes) 0
attr interpolationmode none
attr source packetDropped
attr title "packets dropped, sum(packetBytes)"
scalar Red.host2.app[0] outOfOrderPk:count 0
attr interpolationmode none
attr source outOfOrderPk
attr title "packets received out of order, count"
scalar Red.host2.app[0] outOfOrderPk:sum(packetBytes) 0
attr interpolationmode none
attr source outOfOrderPk
attr title "packets received out of order, sum(packetBytes)"
par Red.host2.at typename "\"inet.common.MessageDispatcher\""
par Red.host2.at displayStringTextFormat "\"processed %p pk (%l)\""
par Red.host2 typename "\"inet.node.inet.StandardHost\""
par Red.host2 hasStatus false
par Red.host2 osgModel "\"\""
par Red.host2 osgModelColor "\"\""
par Red.host2 canvasImage "\"\""
par Red.host2 canvasImageColor "\"\""
par Red.host2 recordPcap false
par Red.host2 numPcapRecorders 0
par Red.host2 numLoInterfaces 1
par Red.host2 numWlanInterfaces 0
par Red.host2 numEthInterfaces 0
par Red.host2 numPppInterfaces 0
par Red.host2 numTunInterfaces 0
par Red.host2 numVirtInterfaces 0
par Red.host2 hasIpv4 true
par Red.host2 hasIpv6 false
par Red.host2 hasGn false
par Red.host2 forwarding false
par Red.host2 multicastForwarding false
par Red.host2 hasUdp true
par Red.host2 hasTcp true
par Red.host2 hasSctp false
par Red.host2 numApps 1
par Red.host3.ethg$i[0].channel typename "\"ned.IdealChannel\""
par Red.host3.eth[0].phys$o.channel typename "\"ned.IdealChannel\""
par Red.host3.interfaceTable typename "\"inet.networklayer.common.InterfaceTable\""
par Red.host3.interfaceTable displayAddresses false
par Red.host3.li typename "\"inet.common.MessageDispatcher\""
par Red.host3.li displayStringTextFormat "\"processed %p pk (%l)\""
par Red.host3.lo[0].upperLayerIn.channel typename "\"ned.IdealChannel\""
par Red.host3.lo[0].lo.upperLayerOut.channel typename "\"ned.IdealChannel\""
par Red.host3.lo[0].lo typename "\"inet.linklayer.loopback.Loopback\""
par Red.host3.lo[0].lo interfaceTableModule "\"Red.host3.interfaceTable\""
par Red.host3.lo[0].lo mtu 4470B
attr unit B
scalar Red.host3.lo[0].lo rcvdPkFromHl:count 0
attr interpolationmode none
attr source packetReceivedFromUpper
attr title "packets received from higher layer, count"
scalar Red.host3.lo[0].lo rcvdPkFromHl:sum(packetBytes) 0
attr interpolationmode none
attr source packetReceivedFromUpper
attr title "packets received from higher layer, sum(packetBytes)"
scalar Red.host3.lo[0].lo passedUpPk:count 0
attr interpolationmode none
attr source packetSentToUpper
attr title "packets passed to higher layer, count"
scalar Red.host3.lo[0].lo passedUpPk:sum(packetBytes) 0
attr interpolationmode none
attr source packetSentToUpper
attr title "packets passed to higher layer, sum(packetBytes)"
par Red.host3.lo[0] typename "\"inet.linklayer.loopback.LoopbackInterface\""
par Red.host3.lo[0] displayStringTextFormat "\"%a (%i)\\n%m\""
par Red.host3.lo[0] recordPcap false
par Red.host3.lo[0] numPcapRecorders 0
par Red.host3.lo[0] interfaceTableModule "\"Red.host3.interfaceTable\""
par Red.host3.eth[0].mac.phys$o.channel typename "\"ned.IdealChannel\""
par Red.host3.eth[0].phys$i.channel typename "\"ned.IdealChannel\""
par Red.host3.eth[0].encap.upperLayerOut.channel typename "\"ned.IdealChannel\""
par Red.host3.eth[0].upperLayerIn.channel typename "\"ned.IdealChannel\""
par Red.host3.eth[0].encap typename "\"inet.linklayer.ethernet.basic.EthernetEncapsulation\""
par Red.host3.eth[0].encap interfaceTableModule "\"Red.host3.interfaceTable\""
par Red.host3.eth[0].encap useSNAP false
par Red.host3.eth[0].encap fcsMode "\"declared\""
attr enum declared,computed
par Red.host3.eth[0].encap registerProtocol false
par Red.host3.eth[0].encap stopOperationExtraTime -1s
attr unit s
par Red.host3.eth[0].encap stopOperationTimeout 2s
attr unit s
scalar Red.host3.eth[0].encap pauseSent:count 0
attr title "pause sent, count"
scalar Red.host3.eth[0].encap pauseSent:sum 0
attr title "pause sent, sum"
scalar Red.host3.eth[0].encap decapPk:count 1
attr interpolationmode none
attr source decapPk
attr title "packets decapsulated, count"
scalar Red.host3.eth[0].encap decapPk:sum(packetBytes) 46
attr interpolationmode none
attr source decapPk
attr title "packets decapsulated, sum(packetBytes)"
scalar Red.host3.eth[0].encap encapPk:count 0
attr interpolationmode none
attr source encapPk
attr title "packets encapsulated, count"
scalar Red.host3.eth[0].encap encapPk:sum(packetBytes) 0
attr interpolationmode none
attr source encapPk
attr title "packets encapsulated, sum(packetBytes)"
par Red.host3.eth[0].mac.queue typename "\"inet.linklayer.ethernet.common.EthernetQueue\""
par Red.host3.eth[0].mac.queue displayStringTextFormat "\"contains %p pk (%l) pushed %u\\npulled %o removed %r dropped %d\""
par Red.host3.eth[0].mac.queue packetCapacity 10000
par Red.host3.eth[0].mac.queue dataCapacity -1b
attr unit b
par Red.host3.eth[0].mac.queue dropperClass "\"inet::queueing::PacketAtCollectionEndDropper\""
par Red.host3.eth[0].mac.queue comparatorClass "\"inet::EthernetFrameTypeComparator\""
par Red.host3.eth[0].mac.queue bufferModule "\"\""
scalar Red.host3.eth[0].mac.queue packetPulled:count 0
attr interpolationmode none
attr title "packet pulled, count"
scalar Red.host3.eth[0].mac.queue packetPulled:sum(packetBytes) 0
attr interpolationmode none
attr title "packet pulled, sum(packetBytes)"
statistic Red.host3.eth[0].mac.queue queueingTime:histogram
field count 0
field mean -nan
field stddev -nan
field min -nan
field max -nan
field sum 0
field sqrsum 0
attr interpolationmode none
attr source queueingTime(packetPulled)
attr title "queueing times, histogram"
attr unit s
bin	-inf	0
bin	0	0
bin	1	0
scalar Red.host3.eth[0].mac.queue queueLength:max -nan
attr autoWarmupFilter false
attr interpolationmode sample-hold
attr source "warmup(count(packetPushed) - count(packetPulled) - count(packetRemoved) - count(packetDropped))"
attr title "queue length, max"
attr type int
scalar Red.host3.eth[0].mac.queue queueLength:timeavg -nan
attr autoWarmupFilter false
attr interpolationmode sample-hold
attr source "warmup(count(packetPushed) - count(packetPulled) - count(packetRemoved) - count(packetDropped))"
attr title "queue length, timeavg"
attr type int
scalar Red.host3.eth[0].mac.queue packetPushed:count 0
attr interpolationmode none
attr title "packet pushed, count"
scalar Red.host3.eth[0].mac.queue packetPushed:sum(packetBytes) 0
attr interpolationmode none
attr title "packet pushed, sum(packetBytes)"
scalar Red.host3.eth[0].mac.queue packetDropQueueOverflow:count 0
attr interpolationmode none
attr source packetDropReasonIsQueueOverflow(packetDropped)
attr title "packet drops: queue overflow, count"
scalar Red.host3.eth[0].mac.queue packetDropQueueOverflow:sum(packetBytes) 0
attr interpolationmode none
attr source packetDropReasonIsQueueOverflow(packetDropped)
attr title "packet drops: queue overflow, sum(packetBytes)"
scalar Red.host3.eth[0].mac.queue packetRemoved:count 0
attr interpolationmode none
attr title "packets removed, count"
scalar Red.host3.eth[0].mac.queue packetRemoved:sum(packetBytes) 0
attr interpolationmode none
attr title "packets removed, sum(packetBytes)"
par Red.host3.eth[0].mac typename "\"inet.linklayer.ethernet.basic.EthernetMac\""
par Red.host3.eth[0].mac interfaceTableModule "\"Red.host3.interfaceTable\""
par Red.host3.eth[0].mac displayStringTextFormat "\"rate: %b\\nsent: %s, rcvd: %r\\nqueue: %q, drop: %d\""
par Red.host3.eth[0].mac sendRawBytes false
par Red.host3.eth[0].mac promiscuous false
par Red.host3.eth[0].mac duplexMode true
par Red.host3.eth[0].mac mtu 1500B
attr unit B
par Red.host3.eth[0].mac stopOperationExtraTime -1s
attr unit s
par Red.host3.eth[0].mac stopOperationTimeout 2s
attr unit s
scalar Red.host3.eth[0].mac "simulated time" 1.014333100328
scalar Red.host3.eth[0].mac full-duplex 1
scalar Red.host3.eth[0].mac "frames/sec sent" 0
scalar Red.host3.eth[0].mac "frames/sec rcvd" 0.98586943448521
scalar Red.host3.eth[0].mac "bits/sec sent" 0
scalar Red.host3.eth[0].mac "bits/sec rcvd" 504.76515045643
scalar Red.host3.eth[0].mac "rx channel idle (%)" 99.994321392057
scalar Red.host3.eth[0].mac "rx channel utilization (%)" 0.0056786079426348
scalar Red.host3.eth[0].mac rxPausePkUnits:count 0
attr interpolationmode none
attr title "pause units received, count"
scalar Red.host3.eth[0].mac rxPausePkUnits:sum 0
attr interpolationmode none
attr title "pause units received, sum"
scalar Red.host3.eth[0].mac txPausePkUnits:count 0
attr interpolationmode none
attr title "pause units sent, count"
scalar Red.host3.eth[0].mac txPausePkUnits:sum 0
attr interpolationmode none
attr title "pause units sent, sum"
scalar Red.host3.eth[0].mac rxPkOk:count 1
attr interpolationmode none
attr source rxPkOk
attr title "packets received OK, count"
scalar Red.host3.eth[0].mac rxPkOk:sum(packetBytes) 64
attr interpolationmode none
attr source rxPkOk
attr title "packets received OK, sum(packetBytes)"
scalar Red.host3.eth[0].mac txPk:count 0
attr interpolationmode none
attr source packetSentToLower
attr title "packets transmitted, count"
scalar Red.host3.eth[0].mac txPk:sum(packetBytes) 0
attr interpolationmode none
attr source packetSentToLower
attr title "packets transmitted, sum(packetBytes)"
scalar Red.host3.eth[0].mac packetReceivedFromUpper:count 0
attr interpolationmode none
attr source packetReceivedFromUpper
attr title "packet bytes from higher layer, count"
scalar Red.host3.eth[0].mac packetReceivedFromUpper:sum(packetBytes) 0
attr interpolationmode none
attr source packetReceivedFromUpper
attr title "packet bytes from higher layer, sum(packetBytes)"
scalar Red.host3.eth[0].mac passedUpPk:count 1
attr interpolationmode none
attr source packetSentToUpper
attr title "packets passed to higher layer, count"
scalar Red.host3.eth[0].mac passedUpPk:sum(packetBytes) 64
attr interpolationmode none
attr source packetSentToUpper
attr title "packets passed to higher layer, sum(packetBytes)"
scalar Red.host3.eth[0].mac packetDropIncorrectlyReceived:count 0
attr interpolationmode none
attr source packetDropReasonIsIncorrectlyReceived(packetDropped)
attr title "packet drop: incorrectly received, count"
scalar Red.host3.eth[0].mac packetDropIncorrectlyReceived:sum(packetBytes) 0
attr interpolationmode none
attr source packetDropReasonIsIncorrectlyReceived(packetDropped)
attr title "packet drop: incorrectly received, sum(packetBytes)"
scalar Red.host3.eth[0].mac packetDropInterfaceDown:count 0
attr interpolationmode none
attr source packetDropReasonIsInterfaceDown(packetDropped)
attr title "packet drop: interface down, count"
scalar Red.host3.eth[0].mac packetDropInterfaceDown:sum(packetBytes) 0
attr interpolationmode none
attr source packetDropReasonIsInterfaceDown(packetDropped)
attr title "packet drop: interface down, sum(packetBytes)"
scalar Red.host3.eth[0].mac packetDropNotAddressedToUs:count 0
attr interpolationmode none
attr source packetDropReasonIsNotAddressedToUs(packetDropped)
attr title "packet drop: not addressed to us, count"
scalar Red.host3.eth[0].mac packetDropNotAddressedToUs:sum(packetBytes) 0
attr interpolationmode none
attr source packetDropReasonIsNotAddressedToUs(packetDropped)
attr title "packet drop: not addressed to us, sum(packetBytes)"
par Red.host3.eth[0] typename "\"inet.linklayer.ethernet.EthernetInterface\""
par Red.host3.eth[0] displayStringTextFormat "\"%a (%i)\\n%m\""
par Red.host3.eth[0] recordPcap false
par Red.host3.eth[0] numPcapRecorders 0
par Red.host3.eth[0] interfaceTableModule "\"Red.host3.interfaceTable\""
par Red.host3.eth[0] address "\"0A-AA-00-00-00-03\""
par Red.host3.eth[0] duplexMode true
par Red.host3.eth[0] csmacdSupport false
par Red.host3.eth[0] bitrate 0bps
attr unit bps
par Red.host3.eth[0] fcsMode "\"declared\""
attr enum declared,computed
par Red.host3.ipv4.transportIn.channel typename "\"ned.IdealChannel\""
par Red.host3.ipv4.up.out[0].channel typename "\"ned.IdealChannel\""
par Red.host3.ipv4.lp.out[2].channel typename "\"ned.IdealChannel\""
par Red.host3.ipv4.ifIn.channel typename "\"ned.IdealChannel\""
par Red.host3.ipv4.configurator typename "\"inet.networklayer.configurator.ipv4.Ipv4NodeConfigurator\""
par Red.host3.ipv4.configurator interfaceTableModule "\"Red.host3.interfaceTable\""
par Red.host3.ipv4.configurator routingTableModule "\"Red.host3.ipv4.routingTable\""
par Red.host3.ipv4.configurator networkConfiguratorModule "\"configurator\""
par Red.host3.ipv4.configurator configureRoutingTable true
par Red.host3.ipv4.routingTable typename "\"inet.networklayer.ipv4.Ipv4RoutingTable\""
par Red.host3.ipv4.routingTable interfaceTableModule "\"Red.host3.interfaceTable\""
par Red.host3.ipv4.routingTable routerId "\"auto\""
par Red.host3.ipv4.routingTable netmaskRoutes "\"*\""
par Red.host3.ipv4.routingTable forwarding false
par Red.host3.ipv4.routingTable multicastForwarding false
par Red.host3.ipv4.routingTable useAdminDist false
par Red.host3.ipv4.routingTable routingFile "\"\""
par Red.host3.ipv4.natTable typename "\"inet.networklayer.ipv4.Ipv4NatTable\""
par Red.host3.ipv4.natTable networkProtocolModule "\"^.ip\""
par Red.host3.ipv4.natTable config "<config/> at content:1"
par Red.host3.ipv4.up typename "\"inet.common.MessageDispatcher\""
par Red.host3.ipv4.up displayStringTextFormat "\"processed %p pk (%l)\""
par Red.host3.ipv4.igmp typename "\"inet.networklayer.ipv4.Igmpv2\""
par Red.host3.ipv4.igmp interfaceTableModule "\"Red.host3.interfaceTable\""
par Red.host3.ipv4.igmp routingTableModule "\"Red.host3.ipv4.routingTable\""
par Red.host3.ipv4.igmp crcMode "\"declared\""
attr enum declared,computed
par Red.host3.ipv4.igmp enabled true
par Red.host3.ipv4.igmp robustnessVariable 2
par Red.host3.ipv4.igmp queryInterval 125s
attr unit s
par Red.host3.ipv4.igmp queryResponseInterval 10s
attr unit s
par Red.host3.ipv4.igmp groupMembershipInterval 260s
attr unit s
par Red.host3.ipv4.igmp otherQuerierPresentInterval 255s
attr unit s
par Red.host3.ipv4.igmp startupQueryInterval 31.25s
attr unit s
par Red.host3.ipv4.igmp startupQueryCount 2
par Red.host3.ipv4.igmp lastMemberQueryInterval 1s
attr unit s
par Red.host3.ipv4.igmp lastMemberQueryCount 2
par Red.host3.ipv4.igmp unsolicitedReportInterval 10s
attr unit s
par Red.host3.ipv4.icmp typename "\"inet.networklayer.ipv4.Icmp\""
par Red.host3.ipv4.icmp interfaceTableModule "\"Red.host3.interfaceTable\""
par Red.host3.ipv4.icmp routingTableModule "\"Red.host3.ipv4.routingTable\""
par Red.host3.ipv4.icmp crcMode "\"declared\""
attr enum declared,computed
par Red.host3.ipv4.icmp quoteLength 8B
attr unit B
par Red.host3.ipv4.mp typename "\"inet.common.MessageDispatcher\""
par Red.host3.ipv4.mp displayStringTextFormat "\"processed %p pk (%l)\""
par Red.host3.ipv4.ip typename "\"inet.networklayer.ipv4.Ipv4\""
par Red.host3.ipv4.ip interfaceTableModule "\"Red.host3.interfaceTable\""
par Red.host3.ipv4.ip routingTableModule "\"Red.host3.ipv4.routingTable\""
par Red.host3.ipv4.ip arpModule "\"Red.host3.ipv4.arp\""
par Red.host3.ipv4.ip icmpModule "\"Red.host3.ipv4.icmp\""
par Red.host3.ipv4.ip crcMode "\"declared\""
attr enum declared,computed
par Red.host3.ipv4.ip timeToLive 32
par Red.host3.ipv4.ip multicastTimeToLive 32
par Red.host3.ipv4.ip fragmentTimeout 60s
attr unit s
par Red.host3.ipv4.ip limitedBroadcast false
par Red.host3.ipv4.ip directBroadcastInterfaces "\"\""
scalar Red.host3.ipv4.ip packetDropAddressResolutionFailed:count 0
attr interpolationmode none
attr source packetDropReasonIsAddressResolutionFailed(packetDropped)
attr title "packet drop: address resolution failed, count"
scalar Red.host3.ipv4.ip packetDropAddressResolutionFailed:sum(packetBytes) 0
attr interpolationmode none
attr source packetDropReasonIsAddressResolutionFailed(packetDropped)
attr title "packet drop: address resolution failed, sum(packetBytes)"
scalar Red.host3.ipv4.ip packetDropHopLimitReached:count 0
attr interpolationmode none
attr source packetDropReasonIsHopLimitReached(packetDropped)
attr title "packet drop: hop limit reached, count"
scalar Red.host3.ipv4.ip packetDropHopLimitReached:sum(packetBytes) 0
attr interpolationmode none
attr source packetDropReasonIsHopLimitReached(packetDropped)
attr title "packet drop: hop limit reached, sum(packetBytes)"
scalar Red.host3.ipv4.ip packetDropForwardingDisabled:count 0
attr interpolationmode none
attr source packetDropReasonIsForwardingDisabled(packetDropped)
attr title "packet drop: forwarding disabled, count"
scalar Red.host3.ipv4.ip packetDropForwardingDisabled:sum(packetBytes) 0
attr interpolationmode none
attr source packetDropReasonIsForwardingDisabled(packetDropped)
attr title "packet drop: forwarding disabled, sum(packetBytes)"
scalar Red.host3.ipv4.ip packetDropNoInterfaceFound:count 0
attr interpolationmode none
attr source packetDropReasonIsNoInterfaceFound(packetDropped)
attr title "packet drop: no interface found, count"
scalar Red.host3.ipv4.ip packetDropNoInterfaceFound:sum(packetBytes) 0
attr interpolationmode none
attr source packetDropReasonIsNoInterfaceFound(packetDropped)
attr title "packet drop: no interface found, sum(packetBytes)"
scalar Red.host3.ipv4.ip packetDropNoRouteFound:count 0
attr interpolationmode none
attr source packetDropReasonIsNoRouteFound(packetDropped)
attr title "packet drop: no route found, count"
scalar Red.host3.ipv4.ip packetDropNoRouteFound:sum(packetBytes) 0
attr interpolationmode none
attr source packetDropReasonIsNoRouteFound(packetDropped)
attr title "packet drop: no route found, sum(packetBytes)"
scalar Red.host3.ipv4.ip packetDropUndefined:count 0
attr interpolationmode none
attr source packetDropReasonIsUndefined(packetDropped)
attr title "packet drop: undefined, count"
scalar Red.host3.ipv4.ip packetDropUndefined:sum(packetBytes) 0
attr interpolationmode none
attr source packetDropReasonIsUndefined(packetDropped)
attr title "packet drop: undefined, sum(packetBytes)"
par Red.host3.ipv4.arp typename "\"inet.networklayer.arp.ipv4.Arp\""
par Red.host3.ipv4.arp interfaceTableModule "\"Red.host3.interfaceTable\""
par Red.host3.ipv4.arp routingTableModule "\"Red.host3.ipv4.routingTable\""
par Red.host3.ipv4.arp retryTimeout 1s
attr unit s
par Red.host3.ipv4.arp retryCount 3
par Red.host3.ipv4.arp cacheTimeout 120s
attr unit s
par Red.host3.ipv4.arp proxyArpInterfaces "\"\""
scalar Red.host3.ipv4.arp arpResolutionFailed:count 0
attr title "ARP failed resolutions, count"
scalar Red.host3.ipv4.arp arpResolutionCompleted:count 0
attr title "ARP completed resolutions, count"
scalar Red.host3.ipv4.arp arpResolutionInitiated:count 0
attr title "ARP initiated resolutions, count"
scalar Red.host3.ipv4.arp arpReplySent:count 0
attr source arpReplySent
attr title "ARP replies sent, count"
scalar Red.host3.ipv4.arp arpReplySent:sum(packetBytes) 0
attr source arpReplySent
attr title "ARP replies sent, sum(packetBytes)"
scalar Red.host3.ipv4.arp arpRequestSent:count 0
attr source arpRequestSent
attr title "ARP request sent, count"
scalar Red.host3.ipv4.arp arpRequestSent:sum(packetBytes) 0
attr source arpRequestSent
attr title "ARP request sent, sum(packetBytes)"
par Red.host3.ipv4.lp typename "\"inet.common.MessageDispatcher\""
par Red.host3.ipv4.lp displayStringTextFormat "\"processed %p pk (%l)\""
par Red.host3.ipv4 typename "\"inet.networklayer.ipv4.Ipv4NetworkLayer\""
par Red.host3.ipv4 forwarding false
par Red.host3.ipv4 multicastForwarding false
par Red.host3.ipv4 interfaceTableModule "\"Red.host3.interfaceTable\""
par Red.host3.ipv4 displayStringTextFormat "\"%i\""
par Red.host3.nl typename "\"inet.common.MessageDispatcher\""
par Red.host3.nl displayStringTextFormat "\"processed %p pk (%l)\""
par Red.host3.udp typename "\"inet.transportlayer.udp.Udp\""
par Red.host3.udp interfaceTableModule "\"Red.host3.interfaceTable\""
par Red.host3.udp icmpModule "\"^.ipv4.icmp\""
par Red.host3.udp icmpv6Module "\"^.ipv6.icmpv6\""
par Red.host3.udp crcMode "\"declared\""
attr enum disabled,declared,computed
scalar Red.host3.udp packetReceived:count 0
attr interpolationmode none
attr source packetReceived
attr title "packets received, count"
scalar Red.host3.udp packetReceived:sum(packetBytes) 0
attr interpolationmode none
attr source packetReceived
attr title "packets received, sum(packetBytes)"
scalar Red.host3.udp packetSent:count 0
attr interpolationmode none
attr source packetSent
attr title "packets sent, count"
scalar Red.host3.udp packetSent:sum(packetBytes) 0
attr interpolationmode none
attr source packetSent
attr title "packets sent, sum(packetBytes)"
scalar Red.host3.udp passedUpPk:count 0
attr interpolationmode none
attr source packetSentToUpper
attr title "packets passed up, count"
scalar Red.host3.udp droppedPkWrongPort:count 0
attr interpolationmode none
attr source packetDropReasonIsNoPortFound(packetDropped)
attr title "packets dropped (wrong port), count"
scalar Red.host3.udp droppedPkBadChecksum:count 0
attr interpolationmode none
attr source packetDropReasonIsIncorrectlyReceived(packetDropped)
attr title "packets dropped (checksum error), count"
par Red.host3.tcp typename "\"inet.transportlayer.tcp.Tcp\""
par Red.host3.tcp crcMode "\"declared\""
attr enum declared,computed
par Red.host3.tcp advertisedWindow 7504
par Red.host3.tcp delayedAcksEnabled false
par Red.host3.tcp nagleEnabled true
par Red.host3.tcp limitedTransmitEnabled false
par Red.host3.tcp increasedIWEnabled false
par Red.host3.tcp sackSupport false
par Red.host3.tcp windowScalingSupport false
par Red.host3.tcp windowScalingFactor -1
par Red.host3.tcp timestampSupport false
par Red.host3.tcp mss 536
par Red.host3.tcp msl 120s
attr unit s
par Red.host3.tcp tcpAlgorithmClass "\"TcpReno\""
attr enum TcpVegas,TcpWestwood,TcpNewReno,TcpReno,TcpTahoe,TcpNoCongestionControl
par Red.host3.tcp useDataNotification false
par Red.host3.tcp dupthresh 3
par Red.host3.tcp initialSsthresh 4294967295
par Red.host3.tcp stopOperationExtraTime 0s
attr unit s
par Red.host3.tcp stopOperationTimeout 2s
attr unit s
par Red.host3.tcp ecnWillingness false
par Red.host3.tcp dctcpGamma 0.0625
par Red.host3.tn typename "\"inet.common.MessageDispatcher\""
par Red.host3.tn displayStringTextFormat "\"processed %p pk (%l)\""
par Red.host3.app[0] typename "\"inet.applications.udpapp.UdpBasicBurst\""
par Red.host3.app[0] interfaceTableModule "\"Red.host3.interfaceTable\""
par Red.host3.app[0] destAddresses "\"\""
par Red.host3.app[0] excludeLocalDestAddresses true
par Red.host3.app[0] chooseDestAddrMode "\"perBurst\""
attr enum once,perBurst,perSend
par Red.host3.app[0] destAddrRNG 0
par Red.host3.app[0] localPort 1000
par Red.host3.app[0] destPort 1000
par Red.host3.app[0] startTime 1s
attr unit s
par Red.host3.app[0] stopTime -1s
attr unit s
par Red.host3.app[0] messageLength 1000B
attr unit B
par Red.host3.app[0] burstDuration "0.5s+uniform(0s, 0.5s)"
attr unit s
[...]
attr unit s
bin	-inf	0
bin	-0.5	0
bin	-0.48	0
bin	-0.46	0
bin	-0.44	0
bin	-0.42	0
bin	-0.4	0
bin	-0.38	0
bin	-0.36	0
bin	-0.34	0
bin	-0.32	0
bin	-0.3	0
bin	-0.28	0
bin	-0.26	0
bin	-0.24	0
bin	-0.22	0
bin	-0.2	0
bin	-0.18	0
bin	-0.16	0
bin	-0.14	0
bin	-0.12	0
bin	-0.1	0
bin	-0.08	0
bin	-0.06	0
bin	-0.04	0
bin	-0.02	0
bin	0	1
bin	0.02	0
bin	0.04	0
bin	0.06	0
bin	0.08	0
bin	0.1	0
bin	0.12	0
bin	0.14	0
bin	0.16	0
bin	0.18	0
bin	0.2	0
bin	0.22	0
bin	0.24	0
bin	0.26	0
bin	0.28	0
bin	0.3	0
bin	0.32	0
bin	0.34	0
bin	0.36	0
bin	0.38	0
bin	0.4	0
bin	0.42	0
bin	0.44	0
bin	0.46	0
bin	0.48	0
bin	0.5	0
scalar Red.switch5.eth[2].mac.queue queueLength:max 1
attr autoWarmupFilter false
attr interpolationmode sample-hold
attr source "warmup(count(packetPushed) - count(packetPulled) - count(packetRemoved) - count(packetDropped))"
attr title "queue length, max"
attr type int
scalar Red.switch5.eth[2].mac.queue queueLength:timeavg 0
attr autoWarmupFilter false
attr interpolationmode sample-hold
attr source "warmup(count(packetPushed) - count(packetPulled) - count(packetRemoved) - count(packetDropped))"
attr title "queue length, timeavg"
attr type int
scalar Red.switch5.eth[2].mac.queue packetPushed:count 1
attr interpolationmode none
attr title "packet pushed, count"
scalar Red.switch5.eth[2].mac.queue packetPushed:sum(packetBytes) 64
attr interpolationmode none
attr title "packet pushed, sum(packetBytes)"
scalar Red.switch5.eth[2].mac.queue packetDropQueueOverflow:count 0
attr interpolationmode none
attr source packetDropReasonIsQueueOverflow(packetDropped)
attr title "packet drops: queue overflow, count"
scalar Red.switch5.eth[2].mac.queue packetDropQueueOverflow:sum(packetBytes) 0
attr interpolationmode none
attr source packetDropReasonIsQueueOverflow(packetDropped)
attr title "packet drops: queue overflow, sum(packetBytes)"
scalar Red.switch5.eth[2].mac.queue packetRemoved:count 0
attr interpolationmode none
attr title "packets removed, count"
scalar Red.switch5.eth[2].mac.queue packetRemoved:sum(packetBytes) 0
attr interpolationmode none
attr title "packets removed, sum(packetBytes)"
par Red.switch5.eth[2].mac typename "\"inet.linklayer.ethernet.basic.EthernetMac\""
par Red.switch5.eth[2].mac interfaceTableModule "\"Red.switch5.interfaceTable\""
par Red.switch5.eth[2].mac displayStringTextFormat "\"rate: %b\\nsent: %s, rcvd: %r\\nqueue: %q, drop: %d\""
par Red.switch5.eth[2].mac sendRawBytes false
par Red.switch5.eth[2].mac promiscuous true
par Red.switch5.eth[2].mac duplexMode true
par Red.switch5.eth[2].mac mtu 1500B
attr unit B
par Red.switch5.eth[2].mac stopOperationExtraTime -1s
attr unit s
par Red.switch5.eth[2].mac stopOperationTimeout 2s
attr unit s
scalar Red.switch5.eth[2].mac "simulated time" 1.014333100328
scalar Red.switch5.eth[2].mac full-duplex 1
scalar Red.switch5.eth[2].mac "frames/sec sent" 0.98586943448521
scalar Red.switch5.eth[2].mac "frames/sec rcvd" 0
scalar Red.switch5.eth[2].mac "bits/sec sent" 504.76515045643
scalar Red.switch5.eth[2].mac "bits/sec rcvd" 0
scalar Red.switch5.eth[2].mac "rx channel idle (%)" 100
scalar Red.switch5.eth[2].mac "rx channel utilization (%)" 0
scalar Red.switch5.eth[2].mac rxPausePkUnits:count 0
attr interpolationmode none
attr title "pause units received, count"
scalar Red.switch5.eth[2].mac rxPausePkUnits:sum 0
attr interpolationmode none
attr title "pause units received, sum"
scalar Red.switch5.eth[2].mac txPausePkUnits:count 0
attr interpolationmode none
attr title "pause units sent, count"
scalar Red.switch5.eth[2].mac txPausePkUnits:sum 0
attr interpolationmode none
attr title "pause units sent, sum"
scalar Red.switch5.eth[2].mac rxPkOk:count 0
attr interpolationmode none
attr source rxPkOk
attr title "packets received OK, count"
scalar Red.switch5.eth[2].mac rxPkOk:sum(packetBytes) 0
attr interpolationmode none
attr source rxPkOk
attr title "packets received OK, sum(packetBytes)"
scalar Red.switch5.eth[2].mac txPk:count 1
attr interpolationmode none
attr source packetSentToLower
attr title "packets transmitted, count"
scalar Red.switch5.eth[2].mac txPk:sum(packetBytes) 64
attr interpolationmode none
attr source packetSentToLower
attr title "packets transmitted, sum(packetBytes)"
scalar Red.switch5.eth[2].mac packetReceivedFromUpper:count 1
attr interpolationmode none
attr source packetReceivedFromUpper
attr title "packet bytes from higher layer, count"
scalar Red.switch5.eth[2].mac packetReceivedFromUpper:sum(packetBytes) 64
attr interpolationmode none
attr source packetReceivedFromUpper
attr title "packet bytes from higher layer, sum(packetBytes)"
scalar Red.switch5.eth[2].mac passedUpPk:count 0
attr interpolationmode none
attr source packetSentToUpper
attr title "packets passed to higher layer, count"
scalar Red.switch5.eth[2].mac passedUpPk:sum(packetBytes) 0
attr interpolationmode none
attr source packetSentToUpper
attr title "packets passed to higher layer, sum(packetBytes)"
scalar Red.switch5.eth[2].mac packetDropIncorrectlyReceived:count 0
attr interpolationmode none
attr source packetDropReasonIsIncorrectlyReceived(packetDropped)
attr title "packet drop: incorrectly received, count"
scalar Red.switch5.eth[2].mac packetDropIncorrectlyReceived:sum(packetBytes) 0
attr interpolationmode none
attr source packetDropReasonIsIncorrectlyReceived(packetDropped)
attr title "packet drop: incorrectly received, sum(packetBytes)"
scalar Red.switch5.eth[2].mac packetDropInterfaceDown:count 0
attr interpolationmode none
attr source packetDropReasonIsInterfaceDown(packetDropped)
attr title "packet drop: interface down, count"
scalar Red.switch5.eth[2].mac packetDropInterfaceDown:sum(packetBytes) 0
attr interpolationmode none
attr source packetDropReasonIsInterfaceDown(packetDropped)
attr title "packet drop: interface down, sum(packetBytes)"
scalar Red.switch5.eth[2].mac packetDropNotAddressedToUs:count 0
attr interpolationmode none
attr source packetDropReasonIsNotAddressedToUs(packetDropped)
attr title "packet drop: not addressed to us, count"
scalar Red.switch5.eth[2].mac packetDropNotAddressedToUs:sum(packetBytes) 0
attr interpolationmode none
attr source packetDropReasonIsNotAddressedToUs(packetDropped)
attr title "packet drop: not addressed to us, sum(packetBytes)"
par Red.switch5.eth[2] typename "\"inet.linklayer.ethernet.EthernetInterface\""
par Red.switch5.eth[2] displayStringTextFormat "\"%a (%i)\\n%m\""
par Red.switch5.eth[2] recordPcap false
par Red.switch5.eth[2] numPcapRecorders 0
par Red.switch5.eth[2] interfaceTableModule "\"Red.switch5.interfaceTable\""
par Red.switch5.eth[2] address "\"0A-AA-00-00-00-17\""
par Red.switch5.eth[2] duplexMode true
par Red.switch5.eth[2] csmacdSupport false
par Red.switch5.eth[2] bitrate 0bps
attr unit bps
par Red.switch5.eth[2] fcsMode "\"declared\""
attr enum declared,computed
par Red.switch5.eth[3].mac.phys$o.channel typename "\"ned.IdealChannel\""
par Red.switch5.eth[3].phys$i.channel typename "\"ned.IdealChannel\""
par Red.switch5.eth[3].mac.queue typename "\"inet.linklayer.ethernet.common.EthernetQueue\""
par Red.switch5.eth[3].mac.queue displayStringTextFormat "\"contains %p pk (%l) pushed %u\\npulled %o removed %r dropped %d\""
par Red.switch5.eth[3].mac.queue packetCapacity 10000
par Red.switch5.eth[3].mac.queue dataCapacity -1b
attr unit b
par Red.switch5.eth[3].mac.queue dropperClass "\"inet::queueing::PacketAtCollectionEndDropper\""
par Red.switch5.eth[3].mac.queue comparatorClass "\"inet::EthernetFrameTypeComparator\""
par Red.switch5.eth[3].mac.queue bufferModule "\"\""
scalar Red.switch5.eth[3].mac.queue packetPulled:count 14
attr interpolationmode none
attr title "packet pulled, count"
scalar Red.switch5.eth[3].mac.queue packetPulled:sum(packetBytes) 13662
attr interpolationmode none
attr title "packet pulled, sum(packetBytes)"
statistic Red.switch5.eth[3].mac.queue queueingTime:histogram
field count 14
field mean 0
field stddev 0
field min 0
field max 0
field sum 0
field sqrsum 0
attr interpolationmode none
attr source queueingTime(packetPulled)
attr title "queueing times, histogram"
attr unit s
bin	-inf	0
bin	-0.5	0
bin	-0.48	0
bin	-0.46	0
bin	-0.44	0
bin	-0.42	0
bin	-0.4	0
bin	-0.38	0
bin	-0.36	0
bin	-0.34	0
bin	-0.32	0
bin	-0.3	0
bin	-0.28	0
bin	-0.26	0
bin	-0.24	0
bin	-0.22	0
bin	-0.2	0
bin	-0.18	0
bin	-0.16	0
bin	-0.14	0
bin	-0.12	0
bin	-0.1	0
bin	-0.08	0
bin	-0.06	0
bin	-0.04	0
bin	-0.02	0
bin	0	14
bin	0.02	0
bin	0.04	0
bin	0.06	0
bin	0.08	0
bin	0.1	0
bin	0.12	0
bin	0.14	0
bin	0.16	0
bin	0.18	0
bin	0.2	0
bin	0.22	0
bin	0.24	0
bin	0.26	0
bin	0.28	0
bin	0.3	0
bin	0.32	0
bin	0.34	0
bin	0.36	0
bin	0.38	0
bin	0.4	0
bin	0.42	0
bin	0.44	0
bin	0.46	0
bin	0.48	0
bin	0.5	0
scalar Red.switch5.eth[3].mac.queue queueLength:max 1
attr autoWarmupFilter false
attr interpolationmode sample-hold
attr source "warmup(count(packetPushed) - count(packetPulled) - count(packetRemoved) - count(packetDropped))"
attr title "queue length, max"
attr type int
scalar Red.switch5.eth[3].mac.queue queueLength:timeavg 0
attr autoWarmupFilter false
attr interpolationmode sample-hold
attr source "warmup(count(packetPushed) - count(packetPulled) - count(packetRemoved) - count(packetDropped))"
attr title "queue length, timeavg"
attr type int
scalar Red.switch5.eth[3].mac.queue packetPushed:count 14
attr interpolationmode none
attr title "packet pushed, count"
scalar Red.switch5.eth[3].mac.queue packetPushed:sum(packetBytes) 13662
attr interpolationmode none
attr title "packet pushed, sum(packetBytes)"
scalar Red.switch5.eth[3].mac.queue packetDropQueueOverflow:count 0
attr interpolationmode none
attr source packetDropReasonIsQueueOverflow(packetDropped)
attr title "packet drops: queue overflow, count"
scalar Red.switch5.eth[3].mac.queue packetDropQueueOverflow:sum(packetBytes) 0
attr interpolationmode none
attr source packetDropReasonIsQueueOverflow(packetDropped)
attr title "packet drops: queue overflow, sum(packetBytes)"
scalar Red.switch5.eth[3].mac.queue packetRemoved:count 0
attr interpolationmode none
attr title "packets removed, count"
scalar Red.switch5.eth[3].mac.queue packetRemoved:sum(packetBytes) 0
attr interpolationmode none
attr title "packets removed, sum(packetBytes)"
par Red.switch5.eth[3].mac typename "\"inet.linklayer.ethernet.basic.EthernetMac\""
par Red.switch5.eth[3].mac interfaceTableModule "\"Red.switch5.interfaceTable\""
par Red.switch5.eth[3].mac displayStringTextFormat "\"rate: %b\\nsent: %s, rcvd: %r\\nqueue: %q, drop: %d\""
par Red.switch5.eth[3].mac sendRawBytes false
par Red.switch5.eth[3].mac promiscuous true
par Red.switch5.eth[3].mac duplexMode true
par Red.switch5.eth[3].mac mtu 1500B
attr unit B
par Red.switch5.eth[3].mac stopOperationExtraTime -1s
attr unit s
par Red.switch5.eth[3].mac stopOperationTimeout 2s
attr unit s
scalar Red.switch5.eth[3].mac "simulated time" 1.014333100328
scalar Red.switch5.eth[3].mac full-duplex 1
scalar Red.switch5.eth[3].mac "frames/sec sent" 12.816302648308
scalar Red.switch5.eth[3].mac "frames/sec rcvd" 0.98586943448521
scalar Red.switch5.eth[3].mac "bits/sec sent" 99501.830283724
scalar Red.switch5.eth[3].mac "bits/sec rcvd" 504.76515045643
scalar Red.switch5.eth[3].mac "rx channel idle (%)" 99.994321392057
scalar Red.switch5.eth[3].mac "rx channel utilization (%)" 0.0056786079426348
scalar Red.switch5.eth[3].mac rxPausePkUnits:count 0
attr interpolationmode none
attr title "pause units received, count"
scalar Red.switch5.eth[3].mac rxPausePkUnits:sum 0
attr interpolationmode none
attr title "pause units received, sum"
scalar Red.switch5.eth[3].mac txPausePkUnits:count 0
attr interpolationmode none
attr title "pause units sent, count"
scalar Red.switch5.eth[3].mac txPausePkUnits:sum 0
attr interpolationmode none
attr title "pause units sent, sum"
scalar Red.switch5.eth[3].mac rxPkOk:count 1
attr interpolationmode none
attr source rxPkOk
attr title "packets received OK, count"
scalar Red.switch5.eth[3].mac rxPkOk:sum(packetBytes) 64
attr interpolationmode none
attr source rxPkOk
attr title "packets received OK, sum(packetBytes)"
scalar Red.switch5.eth[3].mac txPk:count 13
attr interpolationmode none
attr source packetSentToLower
attr title "packets transmitted, count"
scalar Red.switch5.eth[3].mac txPk:sum(packetBytes) 12616
attr interpolationmode none
attr source packetSentToLower
attr title "packets transmitted, sum(packetBytes)"
scalar Red.switch5.eth[3].mac packetReceivedFromUpper:count 14
attr interpolationmode none
attr source packetReceivedFromUpper
attr title "packet bytes from higher layer, count"
scalar Red.switch5.eth[3].mac packetReceivedFromUpper:sum(packetBytes) 13662
attr interpolationmode none
attr source packetReceivedFromUpper
attr title "packet bytes from higher layer, sum(packetBytes)"
scalar Red.switch5.eth[3].mac passedUpPk:count 1
attr interpolationmode none
attr source packetSentToUpper
attr title "packets passed to higher layer, count"
scalar Red.switch5.eth[3].mac passedUpPk:sum(packetBytes) 64
attr interpolationmode none
attr source packetSentToUpper
attr title "packets passed to higher layer, sum(packetBytes)"
scalar Red.switch5.eth[3].mac packetDropIncorrectlyReceived:count 0
attr interpolationmode none
attr source packetDropReasonIsIncorrectlyReceived(packetDropped)
attr title "packet drop: incorrectly received, count"
scalar Red.switch5.eth[3].mac packetDropIncorrectlyReceived:sum(packetBytes) 0
attr interpolationmode none
attr source packetDropReasonIsIncorrectlyReceived(packetDropped)
attr title "packet drop: incorrectly received, sum(packetBytes)"
scalar Red.switch5.eth[3].mac packetDropInterfaceDown:count 0
attr interpolationmode none
attr source packetDropReasonIsInterfaceDown(packetDropped)
attr title "packet drop: interface down, count"
scalar Red.switch5.eth[3].mac packetDropInterfaceDown:sum(packetBytes) 0
attr interpolationmode none
attr source packetDropReasonIsInterfaceDown(packetDropped)
attr title "packet drop: interface down, sum(packetBytes)"
scalar Red.switch5.eth[3].mac packetDropNotAddressedToUs:count 0
attr interpolationmode none
attr source packetDropReasonIsNotAddressedToUs(packetDropped)
attr title "packet drop: not addressed to us, count"
scalar Red.switch5.eth[3].mac packetDropNotAddressedToUs:sum(packetBytes) 0
attr interpolationmode none
attr source packetDropReasonIsNotAddressedToUs(packetDropped)
attr title "packet drop: not addressed to us, sum(packetBytes)"
par Red.switch5.eth[3] typename "\"inet.linklayer.ethernet.EthernetInterface\""
par Red.switch5.eth[3] displayStringTextFormat "\"%a (%i)\\n%m\""
par Red.switch5.eth[3] recordPcap false
par Red.switch5.eth[3] numPcapRecorders 0
par Red.switch5.eth[3] interfaceTableModule "\"Red.switch5.interfaceTable\""
par Red.switch5.eth[3] address "\"0A-AA-00-00-00-18\""
par Red.switch5.eth[3] duplexMode true
par Red.switch5.eth[3] csmacdSupport false
par Red.switch5.eth[3] bitrate 0bps
attr unit bps
par Red.switch5.eth[3] fcsMode "\"declared\""
attr enum declared,computed
par Red.switch5.encap typename "\"inet.linklayer.ethernet.basic.EthernetEncapsulation\""
par Red.switch5.encap interfaceTableModule "\"Red.switch5.interfaceTable\""
par Red.switch5.encap useSNAP false
par Red.switch5.encap fcsMode "\"declared\""
attr enum declared,computed
par Red.switch5.encap registerProtocol true
par Red.switch5.encap stopOperationExtraTime -1s
attr unit s
par Red.switch5.encap stopOperationTimeout 2s
attr unit s
scalar Red.switch5.encap pauseSent:count 0
attr title "pause sent, count"
scalar Red.switch5.encap pauseSent:sum 0
attr title "pause sent, sum"
scalar Red.switch5.encap decapPk:count 0
attr interpolationmode none
attr source decapPk
attr title "packets decapsulated, count"
scalar Red.switch5.encap decapPk:sum(packetBytes) 0
attr interpolationmode none
attr source decapPk
attr title "packets decapsulated, sum(packetBytes)"
scalar Red.switch5.encap encapPk:count 0
attr interpolationmode none
attr source encapPk
attr title "packets encapsulated, count"
scalar Red.switch5.encap encapPk:sum(packetBytes) 0
attr interpolationmode none
attr source encapPk
attr title "packets encapsulated, sum(packetBytes)"
par Red.switch5.rl typename "\"inet.common.MessageDispatcher\""
par Red.switch5.rl displayStringTextFormat "\"processed %p pk (%l)\""
par Red.switch5.ieee8021q.qTagHeaderInserter.out.channel typename "\"ned.IdealChannel\""
par Red.switch5.ieee8021q.lowerLayerIn.channel typename "\"ned.IdealChannel\""
par Red.switch5.ieee8021q.qTagHeaderInserter typename "\"inet.linklayer.ieee8021q.Ieee8021qTagEpdHeaderInserter\""
par Red.switch5.ieee8021q.qTagHeaderInserter displayStringTextFormat "\"processed %p pk (%l)\""
par Red.switch5.ieee8021q.qTagHeaderInserter vlanTagType "\"c\""
attr enum c,s
par Red.switch5.ieee8021q.qTagHeaderInserter nextProtocol "\"ethernetmac\""
par Red.switch5.ieee8021q.qTagHeaderInserter defaultVlanId -1
par Red.switch5.ieee8021q.qTagHeaderInserter defaultUserPriority -1
scalar Red.switch5.ieee8021q.qTagHeaderInserter packetPulled:count 0
attr interpolationmode none
attr title "packets pulled, count"
scalar Red.switch5.ieee8021q.qTagHeaderInserter packetPulled:sum(packetBytes) 0
attr interpolationmode none
attr title "packets pulled, sum(packetBytes)"
scalar Red.switch5.ieee8021q.qTagHeaderInserter packetPushed:count 0
attr interpolationmode none
attr title "packets pushed, count"
scalar Red.switch5.ieee8021q.qTagHeaderInserter packetPushed:sum(packetBytes) 0
attr interpolationmode none
attr title "packets pushed, sum(packetBytes)"
par Red.switch5.ieee8021q.qTagHeaderChecker typename "\"inet.linklayer.ieee8021q.Ieee8021qTagEpdHeaderChecker\""
par Red.switch5.ieee8021q.qTagHeaderChecker displayStringTextFormat "\"dropped %d/%p pk (%k/%l)\""
par Red.switch5.ieee8021q.qTagHeaderChecker vlanTagType "\"c\""
attr enum c,s
par Red.switch5.ieee8021q.qTagHeaderChecker vlanIdFilter "\"\""
scalar Red.switch5.ieee8021q.qTagHeaderChecker packetPulled:count 0
attr interpolationmode none
attr title "packets pulled, count"
scalar Red.switch5.ieee8021q.qTagHeaderChecker packetPulled:sum(packetBytes) 0
attr interpolationmode none
attr title "packets pulled, sum(packetBytes)"
scalar Red.switch5.ieee8021q.qTagHeaderChecker packetPushed:count 0
attr interpolationmode none
attr title "packets pushed, count"
scalar Red.switch5.ieee8021q.qTagHeaderChecker packetPushed:sum(packetBytes) 0
attr interpolationmode none
attr title "packets pushed, sum(packetBytes)"
scalar Red.switch5.ieee8021q.qTagHeaderChecker packetDropped:count 0
attr interpolationmode none
attr title "packets dropped, count"
scalar Red.switch5.ieee8021q.qTagHeaderChecker packetDropped:sum(packetBytes) 0
attr interpolationmode none
attr title "packets dropped, sum(packetBytes)"
par Red.switch5.ieee8021q typename "\"inet.linklayer.ieee8021q.Ieee8021qLayer\""
par Red.switch5.ieee8021q vlanTagType "\"c\""
par Red.switch5.ieee8021q hasSocketSupport false
par Red.switch5 typename "\"inet.node.ethernet.EthernetSwitch\""
par Red.switch5 numPcapRecorders 0
par Red.switch5 hasStatus false
par Red.switch5 hasStp false
par Red.switch5 enableCutthrough false
par Red.switch5 fcsMode "\"declared\""
attr enum declared,computed
par Red.switch5 spanningTreeProtocol "\"Stp\""
par Red.switch5 numEthInterfaces 0
par Red.configurator typename "\"inet.networklayer.configurator.ipv4.Ipv4NetworkConfigurator\""
par Red.configurator minLinkWeight 0.001
par Red.configurator configureIsolatedNetworksSeparatly false
par Red.configurator config "<config>...</config> at content:1"
par Red.configurator assignAddresses true
par Red.configurator assignUniqueAddresses true
par Red.configurator assignDisjunctSubnetAddresses true
par Red.configurator addStaticRoutes true
par Red.configurator addDefaultRoutes true
par Red.configurator addSubnetRoutes true
par Red.configurator addDirectRoutes true
par Red.configurator optimizeRoutes true
par Red.configurator dumpTopology false
par Red.configurator dumpLinks false
par Red.configurator dumpAddresses false
par Red.configurator dumpRoutes false
par Red.configurator dumpConfig "\"\""
par Red typename "\"red8.Red\""

